<routes>
    <vType id="typeOrange" accel="0.8" decel="4.5" sigma="0.5" length="5" minGap="2.5" maxSpeed="25" guiShape="passenger" color="0.832,0.367,0">
    </vType>

    <vType id="typeYellow" accel="0.8" decel="4.5" sigma="0.5" length="5" minGap="2.5" maxSpeed="25" guiShape="passenger" color="0.9375,0.89,0.258">
    </vType>

    <vType id="typeBlue" accel="0.8" decel="4.5" sigma="0.5" length="5" minGap="2.5" maxSpeed="25" guiShape="passenger" color="0,0.445,0.695">
    </vType>

    <vType id="typePurple" accel="0.8" decel="4.5" sigma="0.5" length="5" minGap="2.5" maxSpeed="25" guiShape="passenger" color="0.797,0.473,0.652">
    </vType>

    <vType id="typeGreen" accel="0.8" decel="4.5" sigma="0.5" length="5" minGap="2.5" maxSpeed="25" guiShape="passenger" color="0,0.617,0.449">
    </vType>

    <route id="northEast"  edges="1:0 0:2" />
    <route id="northSouth" edges="1:0 0:3" />
    <route id="northWest"  edges="1:0 0:4" />
    <route id="eastNorth"  edges="2:0 0:1" />
    <route id="eastSouth"  edges="2:0 0:3" />
    <route id="eastWest"   edges="2:0 0:4" />
    <route id="southNorth" edges="3:0 0:1" />
    <route id="southEast"  edges="3:0 0:2" />
    <route id="southWest"  edges="3:0 0:4" />
    <route id="westNorth"  edges="4:0 0:1" />
    <route id="westEast"   edges="4:0 0:2" />
    <route id="westSouth"  edges="4:0 0:3" />
    
    <vehicle id="0" type="typeBlue" route="eastSouth" depart="3" />
    <vehicle id="1" type="typeYellow" route="northWest" depart="4" />
    <vehicle id="2" type="typeOrange" route="northEast" depart="5" />
    <vehicle id="3" type="typeOrange" route="eastNorth" depart="5" />
    <vehicle id="4" type="typeGreen" route="eastWest" depart="5" />
    <vehicle id="5" type="typeGreen" route="northSouth" depart="7" />
    <vehicle id="6" type="typeOrange" route="northWest" depart="7" />
    <vehicle id="7" type="typeOrange" route="eastSouth" depart="7" />
    <vehicle id="8" type="typeYellow" route="westSouth" depart="7" />
    <vehicle id="9" type="typeGreen" route="southEast" depart="8" />
    <vehicle id="10" type="typeOrange" route="eastWest" depart="10" />
    <vehicle id="11" type="typeBlue" route="eastNorth" depart="12" />
    <vehicle id="12" type="typeYellow" route="eastSouth" depart="12" />
    <vehicle id="13" type="typePurple" route="northWest" depart="13" />
    <vehicle id="14" type="typeOrange" route="southWest" depart="13" />
    <vehicle id="15" type="typeOrange" route="westSouth" depart="17" />
    <vehicle id="16" type="typeOrange" route="northSouth" depart="20" />
    <vehicle id="17" type="typeYellow" route="southWest" depart="21" />
    <vehicle id="18" type="typePurple" route="eastNorth" depart="23" />
    <vehicle id="19" type="typeOrange" route="northSouth" depart="25" />
    <vehicle id="20" type="typeBlue" route="southWest" depart="25" />
    <vehicle id="21" type="typePurple" route="eastSouth" depart="28" />
    <vehicle id="22" type="typeBlue" route="eastSouth" depart="32" />
    <vehicle id="23" type="typePurple" route="eastNorth" depart="33" />
    <vehicle id="24" type="typeBlue" route="eastSouth" depart="34" />
    <vehicle id="25" type="typeGreen" route="southNorth" depart="36" />
    <vehicle id="26" type="typePurple" route="eastWest" depart="37" />
    <vehicle id="27" type="typeBlue" route="northEast" depart="42" />
    <vehicle id="28" type="typePurple" route="eastWest" depart="46" />
    <vehicle id="29" type="typePurple" route="southWest" depart="47" />
    <vehicle id="30" type="typePurple" route="westSouth" depart="47" />
    <vehicle id="31" type="typeOrange" route="eastWest" depart="48" />
    <vehicle id="32" type="typeBlue" route="westNorth" depart="48" />
    <vehicle id="33" type="typeOrange" route="westSouth" depart="48" />
    <vehicle id="34" type="typeYellow" route="eastWest" depart="53" />
    <vehicle id="35" type="typeBlue" route="westSouth" depart="54" />
    <vehicle id="36" type="typeYellow" route="northEast" depart="55" />
    <vehicle id="37" type="typeBlue" route="westNorth" depart="59" />
    <vehicle id="38" type="typePurple" route="northWest" depart="63" />
    <vehicle id="39" type="typePurple" route="eastSouth" depart="64" />
    <vehicle id="40" type="typeBlue" route="northEast" depart="65" />
    <vehicle id="41" type="typeYellow" route="southWest" depart="65" />
    <vehicle id="42" type="typeBlue" route="westNorth" depart="67" />
    <vehicle id="43" type="typeBlue" route="northEast" depart="70" />
    <vehicle id="44" type="typeYellow" route="northEast" depart="71" />
    <vehicle id="45" type="typeYellow" route="westSouth" depart="73" />
    <vehicle id="46" type="typeOrange" route="eastNorth" depart="76" />
    <vehicle id="47" type="typeGreen" route="northEast" depart="79" />
    <vehicle id="48" type="typeOrange" route="southNorth" depart="84" />
    <vehicle id="49" type="typeBlue" route="eastNorth" depart="85" />
    <vehicle id="50" type="typeBlue" route="eastSouth" depart="86" />
    <vehicle id="51" type="typeYellow" route="eastWest" depart="86" />
    <vehicle id="52" type="typeBlue" route="eastSouth" depart="92" />
    <vehicle id="53" type="typeOrange" route="northEast" depart="94" />
    <vehicle id="54" type="typeGreen" route="westEast" depart="94" />
    <vehicle id="55" type="typeBlue" route="eastNorth" depart="96" />
    <vehicle id="56" type="typeGreen" route="eastWest" depart="99" />
    <vehicle id="57" type="typeGreen" route="westNorth" depart="99" />
</routes>
