<routes>
    <vType id="typeOrange" accel="0.8" decel="4.5" sigma="0.5" length="5" minGap="2.5" maxSpeed="25" guiShape="passenger" color="0.832,0.367,0">
    </vType>

    <vType id="typeYellow" accel="0.8" decel="4.5" sigma="0.5" length="5" minGap="2.5" maxSpeed="25" guiShape="passenger" color="0.9375,0.89,0.258">
    </vType>

    <vType id="typeBlue" accel="0.8" decel="4.5" sigma="0.5" length="5" minGap="2.5" maxSpeed="25" guiShape="passenger" color="0,0.445,0.695">
    </vType>

    <vType id="typePurple" accel="0.8" decel="4.5" sigma="0.5" length="5" minGap="2.5" maxSpeed="25" guiShape="passenger" color="0.797,0.473,0.652">
    </vType>

    <vType id="typeGreen" accel="0.8" decel="4.5" sigma="0.5" length="5" minGap="2.5" maxSpeed="25" guiShape="passenger" color="0,0.617,0.449">
    </vType>

    <route id="northEast"  edges="1:0 0:2" />
    <route id="northSouth" edges="1:0 0:3" />
    <route id="northWest"  edges="1:0 0:4" />
    <route id="eastNorth"  edges="2:0 0:1" />
    <route id="eastSouth"  edges="2:0 0:3" />
    <route id="eastWest"   edges="2:0 0:4" />
    <route id="southNorth" edges="3:0 0:1" />
    <route id="southEast"  edges="3:0 0:2" />
    <route id="southWest"  edges="3:0 0:4" />
    <route id="westNorth"  edges="4:0 0:1" />
    <route id="westEast"   edges="4:0 0:2" />
    <route id="westSouth"  edges="4:0 0:3" />
    
    <vehicle id="0" type="typeBlue" route="southWest" depart="0" />
    <vehicle id="1" type="typePurple" route="westNorth" depart="2" />
    <vehicle id="2" type="typePurple" route="northSouth" depart="3" />
    <vehicle id="3" type="typeYellow" route="northWest" depart="3" />
    <vehicle id="4" type="typeBlue" route="southWest" depart="6" />
    <vehicle id="5" type="typePurple" route="eastNorth" depart="8" />
    <vehicle id="6" type="typeYellow" route="eastNorth" depart="9" />
    <vehicle id="7" type="typeOrange" route="southNorth" depart="12" />
    <vehicle id="8" type="typeBlue" route="westNorth" depart="13" />
    <vehicle id="9" type="typeGreen" route="westEast" depart="13" />
    <vehicle id="10" type="typeOrange" route="westSouth" depart="14" />
    <vehicle id="11" type="typeGreen" route="southNorth" depart="16" />
    <vehicle id="12" type="typePurple" route="southWest" depart="18" />
    <vehicle id="13" type="typeYellow" route="westEast" depart="18" />
    <vehicle id="14" type="typeGreen" route="northWest" depart="23" />
    <vehicle id="15" type="typeBlue" route="northSouth" depart="27" />
    <vehicle id="16" type="typeYellow" route="eastNorth" depart="27" />
    <vehicle id="17" type="typePurple" route="northSouth" depart="30" />
    <vehicle id="18" type="typeBlue" route="eastWest" depart="32" />
    <vehicle id="19" type="typeBlue" route="northWest" depart="35" />
    <vehicle id="20" type="typeGreen" route="southWest" depart="36" />
    <vehicle id="21" type="typeBlue" route="southWest" depart="39" />
    <vehicle id="22" type="typeGreen" route="eastWest" depart="42" />
    <vehicle id="23" type="typeGreen" route="northSouth" depart="43" />
    <vehicle id="24" type="typeOrange" route="westNorth" depart="45" />
    <vehicle id="25" type="typeOrange" route="westNorth" depart="49" />
    <vehicle id="26" type="typeBlue" route="westEast" depart="49" />
    <vehicle id="27" type="typePurple" route="eastNorth" depart="53" />
    <vehicle id="28" type="typeGreen" route="southEast" depart="55" />
    <vehicle id="29" type="typeYellow" route="southEast" depart="64" />
    <vehicle id="30" type="typeGreen" route="southWest" depart="64" />
    <vehicle id="31" type="typeBlue" route="eastNorth" depart="65" />
    <vehicle id="32" type="typePurple" route="northEast" depart="67" />
    <vehicle id="33" type="typePurple" route="southWest" depart="67" />
    <vehicle id="34" type="typeGreen" route="southWest" depart="69" />
    <vehicle id="35" type="typeYellow" route="northWest" depart="72" />
    <vehicle id="36" type="typePurple" route="westEast" depart="76" />
    <vehicle id="37" type="typeGreen" route="northWest" depart="78" />
    <vehicle id="38" type="typeYellow" route="northEast" depart="80" />
    <vehicle id="39" type="typeOrange" route="northWest" depart="81" />
    <vehicle id="40" type="typeBlue" route="northWest" depart="83" />
    <vehicle id="41" type="typeGreen" route="westNorth" depart="89" />
    <vehicle id="42" type="typeBlue" route="northSouth" depart="90" />
    <vehicle id="43" type="typeBlue" route="eastWest" depart="90" />
    <vehicle id="44" type="typeBlue" route="southNorth" depart="90" />
    <vehicle id="45" type="typeGreen" route="southWest" depart="91" />
    <vehicle id="46" type="typeBlue" route="westSouth" depart="92" />
    <vehicle id="47" type="typeOrange" route="northSouth" depart="94" />
    <vehicle id="48" type="typeYellow" route="westNorth" depart="96" />
    <vehicle id="49" type="typeBlue" route="eastWest" depart="97" />
    <vehicle id="50" type="typeGreen" route="southWest" depart="97" />
    <vehicle id="51" type="typeBlue" route="westNorth" depart="98" />
    <vehicle id="52" type="typeOrange" route="eastNorth" depart="99" />
</routes>
