<routes>
    <vType id="typeOrange" accel="0.8" decel="4.5" sigma="0.5" length="5" minGap="2.5" maxSpeed="25" guiShape="passenger" color="0.832,0.367,0">
    </vType>

    <vType id="typeYellow" accel="0.8" decel="4.5" sigma="0.5" length="5" minGap="2.5" maxSpeed="25" guiShape="passenger" color="0.9375,0.89,0.258">
    </vType>

    <vType id="typeBlue" accel="0.8" decel="4.5" sigma="0.5" length="5" minGap="2.5" maxSpeed="25" guiShape="passenger" color="0,0.445,0.695">
    </vType>

    <vType id="typePurple" accel="0.8" decel="4.5" sigma="0.5" length="5" minGap="2.5" maxSpeed="25" guiShape="passenger" color="0.797,0.473,0.652">
    </vType>

    <vType id="typeGreen" accel="0.8" decel="4.5" sigma="0.5" length="5" minGap="2.5" maxSpeed="25" guiShape="passenger" color="0,0.617,0.449">
    </vType>

    <route id="northEast"  edges="1:0 0:2" />
    <route id="northSouth" edges="1:0 0:3" />
    <route id="northWest"  edges="1:0 0:4" />
    <route id="eastNorth"  edges="2:0 0:1" />
    <route id="eastSouth"  edges="2:0 0:3" />
    <route id="eastWest"   edges="2:0 0:4" />
    <route id="southNorth" edges="3:0 0:1" />
    <route id="southEast"  edges="3:0 0:2" />
    <route id="southWest"  edges="3:0 0:4" />
    <route id="westNorth"  edges="4:0 0:1" />
    <route id="westEast"   edges="4:0 0:2" />
    <route id="westSouth"  edges="4:0 0:3" />
    
    <vehicle id="0" type="typeGreen" route="eastWest" depart="3" />
    <vehicle id="1" type="typeYellow" route="northEast" depart="4" />
    <vehicle id="2" type="typeGreen" route="northWest" depart="5" />
    <vehicle id="3" type="typeYellow" route="westNorth" depart="5" />
    <vehicle id="4" type="typePurple" route="eastWest" depart="12" />
    <vehicle id="5" type="typeYellow" route="westNorth" depart="13" />
    <vehicle id="6" type="typeOrange" route="northSouth" depart="16" />
    <vehicle id="7" type="typeBlue" route="southEast" depart="20" />
    <vehicle id="8" type="typeOrange" route="eastNorth" depart="22" />
    <vehicle id="9" type="typePurple" route="westNorth" depart="25" />
    <vehicle id="10" type="typeOrange" route="westEast" depart="27" />
    <vehicle id="11" type="typeBlue" route="eastSouth" depart="33" />
    <vehicle id="12" type="typeGreen" route="westNorth" depart="33" />
    <vehicle id="13" type="typePurple" route="eastNorth" depart="34" />
    <vehicle id="14" type="typeOrange" route="northWest" depart="39" />
    <vehicle id="15" type="typeBlue" route="southNorth" depart="40" />
    <vehicle id="16" type="typeBlue" route="southEast" depart="41" />
    <vehicle id="17" type="typeOrange" route="northSouth" depart="44" />
    <vehicle id="18" type="typeYellow" route="westNorth" depart="47" />
    <vehicle id="19" type="typeOrange" route="eastNorth" depart="48" />
    <vehicle id="20" type="typeBlue" route="northSouth" depart="51" />
    <vehicle id="21" type="typeGreen" route="southNorth" depart="51" />
    <vehicle id="22" type="typeGreen" route="westEast" depart="57" />
    <vehicle id="23" type="typeGreen" route="westEast" depart="60" />
    <vehicle id="24" type="typeOrange" route="southWest" depart="62" />
    <vehicle id="25" type="typeYellow" route="westSouth" depart="67" />
    <vehicle id="26" type="typeBlue" route="westNorth" depart="72" />
    <vehicle id="27" type="typeGreen" route="northEast" depart="79" />
    <vehicle id="28" type="typeGreen" route="westNorth" depart="80" />
    <vehicle id="29" type="typePurple" route="westNorth" depart="82" />
    <vehicle id="30" type="typeOrange" route="westEast" depart="86" />
    <vehicle id="31" type="typeGreen" route="eastWest" depart="87" />
    <vehicle id="32" type="typePurple" route="westNorth" depart="87" />
    <vehicle id="33" type="typeOrange" route="northWest" depart="91" />
    <vehicle id="34" type="typeYellow" route="southWest" depart="92" />
    <vehicle id="35" type="typeYellow" route="eastNorth" depart="93" />
    <vehicle id="36" type="typeBlue" route="eastNorth" depart="94" />
    <vehicle id="37" type="typeYellow" route="northSouth" depart="95" />
</routes>
