<routes>
    <vType id="typeHuman" accel="0.8" decel="4.5" sigma="0.5" length="5" minGap="2.5" maxSpeed="25" guiShape="passenger" color="1,1,0">
    </vType>

    <vType id="typeITSCV" accel="0.8" decel="4.5" sigma="0.5" length="5" minGap="2.5" maxSpeed="25" guiShape="passenger" color="1,0,0">
        <carFollowing-Krauss tau="1.0"/>
    </vType>

    <route id="eastSouth" edges="2:0 0:1 1:5 5:6" />
    <route id="eastWest" edges="2:0 0:1 1:3 3:7" />
    <route id="westSouth" edges="7:3 3:1 1:5 5:6" />
    <route id="westEast" edges="7:3 3:1 1:0 0:2" />
    <route id="southEast" edges="6:5 5:1 1:0 0:2" />
    <route id="southWest" edges="6:5 5:1 1:3 3:7" />
    
    <vehicle id="0" type="typeITSCV" route="eastWest" depart="3" />
    <vehicle id="1" type="typeITSCV" route="eastWest" depart="8" />
    <vehicle id="2" type="typeITSCV" route="westEast" depart="13" />
    <vehicle id="3" type="typeITSCV" route="eastSouth" depart="16" />
    <vehicle id="4" type="typeITSCV" route="westSouth" depart="18" />
    <vehicle id="5" type="typeITSCV" route="eastWest" depart="24" />
    <vehicle id="6" type="typeITSCV" route="westSouth" depart="24" />
    <vehicle id="7" type="typeITSCV" route="westSouth" depart="27" />
    <vehicle id="8" type="typeITSCV" route="westEast" depart="34" />
    <vehicle id="9" type="typeITSCV" route="westEast" depart="39" />
    <vehicle id="10" type="typeITSCV" route="southWest" depart="41" />
    <vehicle id="11" type="typeITSCV" route="southEast" depart="45" />
    <vehicle id="12" type="typeITSCV" route="westEast" depart="47" />
    <vehicle id="13" type="typeITSCV" route="eastWest" depart="50" />
    <vehicle id="14" type="typeITSCV" route="westEast" depart="51" />
    <vehicle id="15" type="typeITSCV" route="westEast" depart="62" />
    <vehicle id="16" type="typeITSCV" route="eastWest" depart="66" />
    <vehicle id="17" type="typeITSCV" route="westEast" depart="67" />
    <vehicle id="18" type="typeITSCV" route="eastWest" depart="72" />
    <vehicle id="19" type="typeITSCV" route="eastWest" depart="83" />
    <vehicle id="20" type="typeITSCV" route="westEast" depart="84" />
    <vehicle id="21" type="typeITSCV" route="eastWest" depart="90" />
    <vehicle id="22" type="typeITSCV" route="eastWest" depart="97" />
    <vehicle id="23" type="typeITSCV" route="westSouth" depart="98" />
    <vehicle id="24" type="typeITSCV" route="westSouth" depart="102" />
    <vehicle id="25" type="typeITSCV" route="westSouth" depart="104" />
    <vehicle id="26" type="typeITSCV" route="westEast" depart="106" />
    <vehicle id="27" type="typeITSCV" route="eastSouth" depart="110" />
    <vehicle id="28" type="typeITSCV" route="westEast" depart="110" />
    <vehicle id="29" type="typeITSCV" route="eastWest" depart="111" />
    <vehicle id="30" type="typeITSCV" route="eastSouth" depart="120" />
    <vehicle id="31" type="typeITSCV" route="westEast" depart="123" />
    <vehicle id="32" type="typeITSCV" route="westEast" depart="127" />
    <vehicle id="33" type="typeITSCV" route="southWest" depart="127" />
    <vehicle id="34" type="typeITSCV" route="eastWest" depart="128" />
    <vehicle id="35" type="typeITSCV" route="southEast" depart="132" />
    <vehicle id="36" type="typeITSCV" route="eastWest" depart="134" />
    <vehicle id="37" type="typeITSCV" route="southWest" depart="134" />
    <vehicle id="38" type="typeITSCV" route="westSouth" depart="136" />
    <vehicle id="39" type="typeITSCV" route="westSouth" depart="138" />
    <vehicle id="40" type="typeITSCV" route="eastWest" depart="140" />
    <vehicle id="41" type="typeITSCV" route="southWest" depart="145" />
    <vehicle id="42" type="typeITSCV" route="westEast" depart="148" />
    <vehicle id="43" type="typeITSCV" route="eastWest" depart="153" />
    <vehicle id="44" type="typeITSCV" route="southEast" depart="154" />
    <vehicle id="45" type="typeITSCV" route="eastWest" depart="156" />
    <vehicle id="46" type="typeITSCV" route="southEast" depart="157" />
    <vehicle id="47" type="typeITSCV" route="eastWest" depart="162" />
    <vehicle id="48" type="typeITSCV" route="westEast" depart="164" />
    <vehicle id="49" type="typeITSCV" route="westSouth" depart="168" />
    <vehicle id="50" type="typeITSCV" route="eastWest" depart="169" />
    <vehicle id="51" type="typeITSCV" route="eastWest" depart="170" />
    <vehicle id="52" type="typeITSCV" route="eastWest" depart="172" />
    <vehicle id="53" type="typeITSCV" route="westEast" depart="178" />
    <vehicle id="54" type="typeITSCV" route="southWest" depart="178" />
    <vehicle id="55" type="typeITSCV" route="westSouth" depart="181" />
    <vehicle id="56" type="typeITSCV" route="westEast" depart="185" />
    <vehicle id="57" type="typeITSCV" route="eastSouth" depart="192" />
    <vehicle id="58" type="typeITSCV" route="westEast" depart="198" />
    <vehicle id="59" type="typeITSCV" route="westEast" depart="207" />
    <vehicle id="60" type="typeITSCV" route="westEast" depart="211" />
    <vehicle id="61" type="typeITSCV" route="eastWest" depart="214" />
    <vehicle id="62" type="typeITSCV" route="eastWest" depart="216" />
    <vehicle id="63" type="typeITSCV" route="westEast" depart="217" />
    <vehicle id="64" type="typeITSCV" route="southWest" depart="218" />
    <vehicle id="65" type="typeITSCV" route="westEast" depart="222" />
    <vehicle id="66" type="typeITSCV" route="eastWest" depart="224" />
    <vehicle id="67" type="typeITSCV" route="westEast" depart="224" />
    <vehicle id="68" type="typeITSCV" route="eastSouth" depart="226" />
    <vehicle id="69" type="typeITSCV" route="westEast" depart="229" />
    <vehicle id="70" type="typeITSCV" route="eastSouth" depart="238" />
    <vehicle id="71" type="typeITSCV" route="westSouth" depart="240" />
    <vehicle id="72" type="typeITSCV" route="westEast" depart="245" />
    <vehicle id="73" type="typeITSCV" route="eastWest" depart="251" />
    <vehicle id="74" type="typeITSCV" route="eastWest" depart="252" />
    <vehicle id="75" type="typeITSCV" route="eastWest" depart="254" />
    <vehicle id="76" type="typeITSCV" route="eastWest" depart="255" />
    <vehicle id="77" type="typeITSCV" route="westEast" depart="256" />
    <vehicle id="78" type="typeITSCV" route="southEast" depart="260" />
    <vehicle id="79" type="typeITSCV" route="westEast" depart="261" />
    <vehicle id="80" type="typeITSCV" route="eastWest" depart="262" />
    <vehicle id="81" type="typeITSCV" route="southEast" depart="266" />
    <vehicle id="82" type="typeITSCV" route="eastWest" depart="270" />
    <vehicle id="83" type="typeITSCV" route="southEast" depart="272" />
    <vehicle id="84" type="typeITSCV" route="westEast" depart="279" />
    <vehicle id="85" type="typeITSCV" route="westSouth" depart="285" />
    <vehicle id="86" type="typeITSCV" route="westEast" depart="292" />
    <vehicle id="87" type="typeITSCV" route="westEast" depart="294" />
    <vehicle id="88" type="typeITSCV" route="eastSouth" depart="295" />
    <vehicle id="89" type="typeITSCV" route="westEast" depart="295" />
    <vehicle id="90" type="typeITSCV" route="westEast" depart="296" />
    <vehicle id="91" type="typeITSCV" route="westEast" depart="297" />
    <vehicle id="92" type="typeITSCV" route="southWest" depart="298" />
    <vehicle id="93" type="typeITSCV" route="eastSouth" depart="303" />
    <vehicle id="94" type="typeITSCV" route="southEast" depart="304" />
    <vehicle id="95" type="typeITSCV" route="westEast" depart="310" />
    <vehicle id="96" type="typeITSCV" route="eastSouth" depart="312" />
    <vehicle id="97" type="typeITSCV" route="eastWest" depart="317" />
    <vehicle id="98" type="typeITSCV" route="westEast" depart="320" />
    <vehicle id="99" type="typeITSCV" route="westEast" depart="322" />
    <vehicle id="100" type="typeITSCV" route="westEast" depart="328" />
    <vehicle id="101" type="typeITSCV" route="eastWest" depart="329" />
    <vehicle id="102" type="typeITSCV" route="eastSouth" depart="330" />
    <vehicle id="103" type="typeITSCV" route="westEast" depart="332" />
    <vehicle id="104" type="typeITSCV" route="southEast" depart="332" />
    <vehicle id="105" type="typeITSCV" route="eastWest" depart="333" />
    <vehicle id="106" type="typeITSCV" route="eastWest" depart="334" />
    <vehicle id="107" type="typeITSCV" route="eastSouth" depart="341" />
    <vehicle id="108" type="typeITSCV" route="westSouth" depart="345" />
    <vehicle id="109" type="typeITSCV" route="westEast" depart="348" />
    <vehicle id="110" type="typeITSCV" route="westEast" depart="356" />
    <vehicle id="111" type="typeITSCV" route="westEast" depart="357" />
    <vehicle id="112" type="typeITSCV" route="westEast" depart="373" />
    <vehicle id="113" type="typeITSCV" route="southWest" depart="373" />
    <vehicle id="114" type="typeITSCV" route="eastWest" depart="383" />
    <vehicle id="115" type="typeITSCV" route="eastWest" depart="389" />
    <vehicle id="116" type="typeITSCV" route="southEast" depart="389" />
    <vehicle id="117" type="typeITSCV" route="westEast" depart="390" />
    <vehicle id="118" type="typeITSCV" route="westEast" depart="391" />
    <vehicle id="119" type="typeITSCV" route="eastWest" depart="394" />
    <vehicle id="120" type="typeITSCV" route="southWest" depart="394" />
    <vehicle id="121" type="typeITSCV" route="westSouth" depart="395" />
    <vehicle id="122" type="typeITSCV" route="westEast" depart="395" />
    <vehicle id="123" type="typeITSCV" route="westEast" depart="396" />
    <vehicle id="124" type="typeITSCV" route="eastWest" depart="405" />
    <vehicle id="125" type="typeITSCV" route="southEast" depart="407" />
    <vehicle id="126" type="typeITSCV" route="westEast" depart="411" />
    <vehicle id="127" type="typeITSCV" route="eastSouth" depart="414" />
    <vehicle id="128" type="typeITSCV" route="westEast" depart="420" />
    <vehicle id="129" type="typeITSCV" route="westEast" depart="421" />
    <vehicle id="130" type="typeITSCV" route="westEast" depart="426" />
    <vehicle id="131" type="typeITSCV" route="eastWest" depart="431" />
    <vehicle id="132" type="typeITSCV" route="westEast" depart="443" />
    <vehicle id="133" type="typeITSCV" route="eastWest" depart="445" />
    <vehicle id="134" type="typeITSCV" route="westSouth" depart="447" />
    <vehicle id="135" type="typeITSCV" route="westEast" depart="451" />
    <vehicle id="136" type="typeITSCV" route="eastWest" depart="453" />
    <vehicle id="137" type="typeITSCV" route="eastWest" depart="455" />
    <vehicle id="138" type="typeITSCV" route="westEast" depart="458" />
    <vehicle id="139" type="typeITSCV" route="westEast" depart="466" />
    <vehicle id="140" type="typeITSCV" route="westEast" depart="475" />
    <vehicle id="141" type="typeITSCV" route="eastWest" depart="480" />
    <vehicle id="142" type="typeITSCV" route="westEast" depart="490" />
    <vehicle id="143" type="typeITSCV" route="southEast" depart="492" />
    <vehicle id="144" type="typeITSCV" route="eastSouth" depart="494" />
    <vehicle id="145" type="typeITSCV" route="eastSouth" depart="495" />
    <vehicle id="146" type="typeITSCV" route="westSouth" depart="495" />
    <vehicle id="147" type="typeITSCV" route="westEast" depart="497" />
    <vehicle id="148" type="typeITSCV" route="westSouth" depart="502" />
    <vehicle id="149" type="typeITSCV" route="westSouth" depart="509" />
    <vehicle id="150" type="typeITSCV" route="eastWest" depart="510" />
    <vehicle id="151" type="typeITSCV" route="southEast" depart="515" />
    <vehicle id="152" type="typeITSCV" route="westEast" depart="522" />
    <vehicle id="153" type="typeITSCV" route="eastWest" depart="523" />
    <vehicle id="154" type="typeITSCV" route="westEast" depart="527" />
    <vehicle id="155" type="typeITSCV" route="westSouth" depart="529" />
    <vehicle id="156" type="typeITSCV" route="westEast" depart="531" />
    <vehicle id="157" type="typeITSCV" route="westEast" depart="533" />
    <vehicle id="158" type="typeITSCV" route="eastWest" depart="540" />
    <vehicle id="159" type="typeITSCV" route="westEast" depart="547" />
    <vehicle id="160" type="typeITSCV" route="westEast" depart="549" />
    <vehicle id="161" type="typeITSCV" route="southEast" depart="556" />
    <vehicle id="162" type="typeITSCV" route="eastSouth" depart="560" />
    <vehicle id="163" type="typeITSCV" route="eastWest" depart="560" />
    <vehicle id="164" type="typeITSCV" route="eastWest" depart="571" />
    <vehicle id="165" type="typeITSCV" route="eastSouth" depart="578" />
    <vehicle id="166" type="typeITSCV" route="westEast" depart="581" />
    <vehicle id="167" type="typeITSCV" route="southEast" depart="581" />
    <vehicle id="168" type="typeITSCV" route="eastSouth" depart="582" />
    <vehicle id="169" type="typeITSCV" route="eastSouth" depart="583" />
    <vehicle id="170" type="typeITSCV" route="westSouth" depart="585" />
    <vehicle id="171" type="typeITSCV" route="eastWest" depart="586" />
    <vehicle id="172" type="typeITSCV" route="westEast" depart="590" />
    <vehicle id="173" type="typeITSCV" route="eastWest" depart="593" />
    <vehicle id="174" type="typeITSCV" route="eastWest" depart="596" />
    <vehicle id="175" type="typeITSCV" route="eastWest" depart="599" />
    <vehicle id="176" type="typeITSCV" route="westEast" depart="599" />
    <vehicle id="177" type="typeITSCV" route="southEast" depart="599" />
    <vehicle id="178" type="typeITSCV" route="westEast" depart="601" />
    <vehicle id="179" type="typeITSCV" route="westEast" depart="603" />
    <vehicle id="180" type="typeITSCV" route="eastWest" depart="609" />
    <vehicle id="181" type="typeITSCV" route="westEast" depart="609" />
    <vehicle id="182" type="typeITSCV" route="eastSouth" depart="619" />
    <vehicle id="183" type="typeITSCV" route="eastWest" depart="624" />
    <vehicle id="184" type="typeITSCV" route="eastWest" depart="625" />
    <vehicle id="185" type="typeITSCV" route="westEast" depart="632" />
    <vehicle id="186" type="typeITSCV" route="eastSouth" depart="633" />
    <vehicle id="187" type="typeITSCV" route="eastWest" depart="635" />
    <vehicle id="188" type="typeITSCV" route="southWest" depart="635" />
    <vehicle id="189" type="typeITSCV" route="eastWest" depart="638" />
    <vehicle id="190" type="typeITSCV" route="southWest" depart="643" />
    <vehicle id="191" type="typeITSCV" route="westEast" depart="646" />
    <vehicle id="192" type="typeITSCV" route="westSouth" depart="651" />
    <vehicle id="193" type="typeITSCV" route="westEast" depart="654" />
    <vehicle id="194" type="typeITSCV" route="eastWest" depart="661" />
    <vehicle id="195" type="typeITSCV" route="eastWest" depart="666" />
    <vehicle id="196" type="typeITSCV" route="eastWest" depart="670" />
    <vehicle id="197" type="typeITSCV" route="eastWest" depart="677" />
    <vehicle id="198" type="typeITSCV" route="eastWest" depart="682" />
    <vehicle id="199" type="typeITSCV" route="westSouth" depart="684" />
    <vehicle id="200" type="typeITSCV" route="westEast" depart="684" />
    <vehicle id="201" type="typeITSCV" route="westEast" depart="693" />
    <vehicle id="202" type="typeITSCV" route="westSouth" depart="697" />
    <vehicle id="203" type="typeITSCV" route="southEast" depart="706" />
    <vehicle id="204" type="typeITSCV" route="westEast" depart="711" />
    <vehicle id="205" type="typeITSCV" route="eastWest" depart="713" />
    <vehicle id="206" type="typeITSCV" route="westEast" depart="714" />
    <vehicle id="207" type="typeITSCV" route="westEast" depart="715" />
    <vehicle id="208" type="typeITSCV" route="westEast" depart="717" />
    <vehicle id="209" type="typeITSCV" route="eastWest" depart="718" />
    <vehicle id="210" type="typeITSCV" route="westEast" depart="718" />
    <vehicle id="211" type="typeITSCV" route="westEast" depart="724" />
    <vehicle id="212" type="typeITSCV" route="southWest" depart="726" />
    <vehicle id="213" type="typeITSCV" route="eastWest" depart="728" />
    <vehicle id="214" type="typeITSCV" route="eastSouth" depart="734" />
    <vehicle id="215" type="typeITSCV" route="westSouth" depart="735" />
    <vehicle id="216" type="typeITSCV" route="eastSouth" depart="738" />
    <vehicle id="217" type="typeITSCV" route="westEast" depart="746" />
    <vehicle id="218" type="typeITSCV" route="eastSouth" depart="747" />
    <vehicle id="219" type="typeITSCV" route="eastWest" depart="747" />
    <vehicle id="220" type="typeITSCV" route="westEast" depart="747" />
    <vehicle id="221" type="typeITSCV" route="westEast" depart="748" />
    <vehicle id="222" type="typeITSCV" route="westSouth" depart="750" />
    <vehicle id="223" type="typeITSCV" route="westEast" depart="751" />
    <vehicle id="224" type="typeITSCV" route="westEast" depart="752" />
    <vehicle id="225" type="typeITSCV" route="westEast" depart="754" />
    <vehicle id="226" type="typeITSCV" route="eastSouth" depart="756" />
    <vehicle id="227" type="typeITSCV" route="eastSouth" depart="759" />
    <vehicle id="228" type="typeITSCV" route="eastWest" depart="762" />
    <vehicle id="229" type="typeITSCV" route="westEast" depart="766" />
    <vehicle id="230" type="typeITSCV" route="westSouth" depart="767" />
    <vehicle id="231" type="typeITSCV" route="eastWest" depart="777" />
    <vehicle id="232" type="typeITSCV" route="westEast" depart="778" />
    <vehicle id="233" type="typeITSCV" route="westEast" depart="781" />
    <vehicle id="234" type="typeITSCV" route="eastWest" depart="784" />
    <vehicle id="235" type="typeITSCV" route="southWest" depart="786" />
    <vehicle id="236" type="typeITSCV" route="westEast" depart="787" />
    <vehicle id="237" type="typeITSCV" route="westEast" depart="790" />
    <vehicle id="238" type="typeITSCV" route="eastWest" depart="793" />
    <vehicle id="239" type="typeITSCV" route="southWest" depart="797" />
    <vehicle id="240" type="typeITSCV" route="westEast" depart="804" />
    <vehicle id="241" type="typeITSCV" route="southWest" depart="814" />
    <vehicle id="242" type="typeITSCV" route="eastWest" depart="821" />
    <vehicle id="243" type="typeITSCV" route="eastWest" depart="826" />
    <vehicle id="244" type="typeITSCV" route="westEast" depart="830" />
    <vehicle id="245" type="typeITSCV" route="westEast" depart="832" />
    <vehicle id="246" type="typeITSCV" route="eastWest" depart="837" />
    <vehicle id="247" type="typeITSCV" route="westEast" depart="843" />
    <vehicle id="248" type="typeITSCV" route="westEast" depart="844" />
    <vehicle id="249" type="typeITSCV" route="westEast" depart="846" />
    <vehicle id="250" type="typeITSCV" route="westSouth" depart="854" />
    <vehicle id="251" type="typeITSCV" route="westEast" depart="858" />
    <vehicle id="252" type="typeITSCV" route="westEast" depart="864" />
    <vehicle id="253" type="typeITSCV" route="southWest" depart="870" />
    <vehicle id="254" type="typeITSCV" route="eastWest" depart="871" />
    <vehicle id="255" type="typeITSCV" route="eastWest" depart="873" />
    <vehicle id="256" type="typeITSCV" route="eastWest" depart="877" />
    <vehicle id="257" type="typeITSCV" route="eastWest" depart="885" />
    <vehicle id="258" type="typeITSCV" route="eastWest" depart="886" />
    <vehicle id="259" type="typeITSCV" route="westEast" depart="886" />
    <vehicle id="260" type="typeITSCV" route="eastWest" depart="891" />
    <vehicle id="261" type="typeITSCV" route="westSouth" depart="891" />
    <vehicle id="262" type="typeITSCV" route="westEast" depart="893" />
    <vehicle id="263" type="typeITSCV" route="westSouth" depart="895" />
    <vehicle id="264" type="typeITSCV" route="eastWest" depart="899" />
    <vehicle id="265" type="typeITSCV" route="westEast" depart="901" />
    <vehicle id="266" type="typeITSCV" route="southEast" depart="902" />
    <vehicle id="267" type="typeITSCV" route="southWest" depart="906" />
    <vehicle id="268" type="typeITSCV" route="westEast" depart="908" />
    <vehicle id="269" type="typeITSCV" route="southWest" depart="911" />
    <vehicle id="270" type="typeITSCV" route="eastWest" depart="917" />
    <vehicle id="271" type="typeITSCV" route="westEast" depart="921" />
    <vehicle id="272" type="typeITSCV" route="eastWest" depart="922" />
    <vehicle id="273" type="typeITSCV" route="westEast" depart="923" />
    <vehicle id="274" type="typeITSCV" route="southWest" depart="924" />
    <vehicle id="275" type="typeITSCV" route="westSouth" depart="925" />
    <vehicle id="276" type="typeITSCV" route="westSouth" depart="926" />
    <vehicle id="277" type="typeITSCV" route="westSouth" depart="935" />
    <vehicle id="278" type="typeITSCV" route="southWest" depart="935" />
    <vehicle id="279" type="typeITSCV" route="eastWest" depart="940" />
    <vehicle id="280" type="typeITSCV" route="westEast" depart="941" />
    <vehicle id="281" type="typeITSCV" route="eastWest" depart="946" />
    <vehicle id="282" type="typeITSCV" route="eastSouth" depart="951" />
    <vehicle id="283" type="typeITSCV" route="eastSouth" depart="956" />
    <vehicle id="284" type="typeITSCV" route="westEast" depart="957" />
    <vehicle id="285" type="typeITSCV" route="westSouth" depart="960" />
    <vehicle id="286" type="typeITSCV" route="eastSouth" depart="961" />
    <vehicle id="287" type="typeITSCV" route="westSouth" depart="962" />
    <vehicle id="288" type="typeITSCV" route="eastWest" depart="966" />
    <vehicle id="289" type="typeITSCV" route="westEast" depart="971" />
    <vehicle id="290" type="typeITSCV" route="southEast" depart="978" />
    <vehicle id="291" type="typeITSCV" route="southWest" depart="980" />
    <vehicle id="292" type="typeITSCV" route="southEast" depart="981" />
    <vehicle id="293" type="typeITSCV" route="eastWest" depart="993" />
    <vehicle id="294" type="typeITSCV" route="eastWest" depart="995" />
    <vehicle id="295" type="typeITSCV" route="westEast" depart="995" />
    <vehicle id="296" type="typeITSCV" route="westEast" depart="996" />
    <vehicle id="297" type="typeITSCV" route="westEast" depart="998" />
    <vehicle id="298" type="typeITSCV" route="eastWest" depart="1007" />
    <vehicle id="299" type="typeITSCV" route="westEast" depart="1008" />
    <vehicle id="300" type="typeITSCV" route="eastWest" depart="1014" />
    <vehicle id="301" type="typeITSCV" route="eastWest" depart="1030" />
    <vehicle id="302" type="typeITSCV" route="eastWest" depart="1033" />
    <vehicle id="303" type="typeITSCV" route="eastWest" depart="1036" />
    <vehicle id="304" type="typeITSCV" route="westEast" depart="1039" />
    <vehicle id="305" type="typeITSCV" route="eastWest" depart="1041" />
    <vehicle id="306" type="typeITSCV" route="eastWest" depart="1044" />
    <vehicle id="307" type="typeITSCV" route="westEast" depart="1044" />
    <vehicle id="308" type="typeITSCV" route="eastWest" depart="1046" />
    <vehicle id="309" type="typeITSCV" route="westEast" depart="1047" />
    <vehicle id="310" type="typeITSCV" route="eastWest" depart="1051" />
    <vehicle id="311" type="typeITSCV" route="westEast" depart="1052" />
    <vehicle id="312" type="typeITSCV" route="eastWest" depart="1058" />
    <vehicle id="313" type="typeITSCV" route="southEast" depart="1058" />
    <vehicle id="314" type="typeITSCV" route="eastSouth" depart="1061" />
    <vehicle id="315" type="typeITSCV" route="westEast" depart="1062" />
    <vehicle id="316" type="typeITSCV" route="westEast" depart="1065" />
    <vehicle id="317" type="typeITSCV" route="westEast" depart="1068" />
    <vehicle id="318" type="typeITSCV" route="westSouth" depart="1075" />
    <vehicle id="319" type="typeITSCV" route="eastSouth" depart="1084" />
    <vehicle id="320" type="typeITSCV" route="eastWest" depart="1096" />
    <vehicle id="321" type="typeITSCV" route="westEast" depart="1096" />
    <vehicle id="322" type="typeITSCV" route="westEast" depart="1100" />
    <vehicle id="323" type="typeITSCV" route="westEast" depart="1102" />
    <vehicle id="324" type="typeITSCV" route="eastSouth" depart="1106" />
    <vehicle id="325" type="typeITSCV" route="eastWest" depart="1109" />
    <vehicle id="326" type="typeITSCV" route="westEast" depart="1110" />
    <vehicle id="327" type="typeITSCV" route="westEast" depart="1114" />
    <vehicle id="328" type="typeITSCV" route="eastSouth" depart="1115" />
    <vehicle id="329" type="typeITSCV" route="westEast" depart="1115" />
    <vehicle id="330" type="typeITSCV" route="westEast" depart="1118" />
    <vehicle id="331" type="typeITSCV" route="eastSouth" depart="1119" />
    <vehicle id="332" type="typeITSCV" route="southWest" depart="1120" />
    <vehicle id="333" type="typeITSCV" route="westEast" depart="1124" />
    <vehicle id="334" type="typeITSCV" route="eastWest" depart="1128" />
    <vehicle id="335" type="typeITSCV" route="westEast" depart="1133" />
    <vehicle id="336" type="typeITSCV" route="eastSouth" depart="1146" />
    <vehicle id="337" type="typeITSCV" route="westEast" depart="1152" />
    <vehicle id="338" type="typeITSCV" route="westEast" depart="1158" />
    <vehicle id="339" type="typeITSCV" route="southWest" depart="1158" />
    <vehicle id="340" type="typeITSCV" route="eastSouth" depart="1160" />
    <vehicle id="341" type="typeITSCV" route="westEast" depart="1165" />
    <vehicle id="342" type="typeITSCV" route="eastSouth" depart="1168" />
    <vehicle id="343" type="typeITSCV" route="eastWest" depart="1168" />
    <vehicle id="344" type="typeITSCV" route="westEast" depart="1175" />
    <vehicle id="345" type="typeITSCV" route="westEast" depart="1179" />
    <vehicle id="346" type="typeITSCV" route="eastWest" depart="1183" />
    <vehicle id="347" type="typeITSCV" route="southEast" depart="1183" />
    <vehicle id="348" type="typeITSCV" route="eastSouth" depart="1190" />
    <vehicle id="349" type="typeITSCV" route="eastWest" depart="1190" />
    <vehicle id="350" type="typeITSCV" route="westSouth" depart="1198" />
    <vehicle id="351" type="typeITSCV" route="southWest" depart="1202" />
    <vehicle id="352" type="typeITSCV" route="southEast" depart="1207" />
    <vehicle id="353" type="typeITSCV" route="eastWest" depart="1209" />
    <vehicle id="354" type="typeITSCV" route="westEast" depart="1212" />
    <vehicle id="355" type="typeITSCV" route="westSouth" depart="1214" />
    <vehicle id="356" type="typeITSCV" route="southWest" depart="1216" />
    <vehicle id="357" type="typeITSCV" route="westEast" depart="1220" />
    <vehicle id="358" type="typeITSCV" route="westSouth" depart="1227" />
    <vehicle id="359" type="typeITSCV" route="westEast" depart="1227" />
    <vehicle id="360" type="typeITSCV" route="eastWest" depart="1231" />
    <vehicle id="361" type="typeITSCV" route="eastWest" depart="1256" />
    <vehicle id="362" type="typeITSCV" route="westEast" depart="1257" />
    <vehicle id="363" type="typeITSCV" route="westEast" depart="1258" />
    <vehicle id="364" type="typeITSCV" route="eastWest" depart="1259" />
    <vehicle id="365" type="typeITSCV" route="eastWest" depart="1261" />
    <vehicle id="366" type="typeITSCV" route="westEast" depart="1266" />
    <vehicle id="367" type="typeITSCV" route="southEast" depart="1270" />
    <vehicle id="368" type="typeITSCV" route="eastSouth" depart="1275" />
    <vehicle id="369" type="typeITSCV" route="eastWest" depart="1276" />
    <vehicle id="370" type="typeITSCV" route="westSouth" depart="1280" />
    <vehicle id="371" type="typeITSCV" route="westEast" depart="1281" />
    <vehicle id="372" type="typeITSCV" route="westEast" depart="1285" />
    <vehicle id="373" type="typeITSCV" route="eastSouth" depart="1289" />
    <vehicle id="374" type="typeITSCV" route="westEast" depart="1292" />
    <vehicle id="375" type="typeITSCV" route="eastWest" depart="1293" />
    <vehicle id="376" type="typeITSCV" route="eastWest" depart="1294" />
    <vehicle id="377" type="typeITSCV" route="westEast" depart="1296" />
    <vehicle id="378" type="typeITSCV" route="eastWest" depart="1309" />
    <vehicle id="379" type="typeITSCV" route="westEast" depart="1311" />
    <vehicle id="380" type="typeITSCV" route="westEast" depart="1312" />
    <vehicle id="381" type="typeITSCV" route="westSouth" depart="1313" />
    <vehicle id="382" type="typeITSCV" route="westEast" depart="1314" />
    <vehicle id="383" type="typeITSCV" route="eastWest" depart="1320" />
    <vehicle id="384" type="typeITSCV" route="southWest" depart="1320" />
    <vehicle id="385" type="typeITSCV" route="eastWest" depart="1321" />
    <vehicle id="386" type="typeITSCV" route="southWest" depart="1326" />
    <vehicle id="387" type="typeITSCV" route="westEast" depart="1327" />
    <vehicle id="388" type="typeITSCV" route="southWest" depart="1327" />
    <vehicle id="389" type="typeITSCV" route="eastWest" depart="1328" />
    <vehicle id="390" type="typeITSCV" route="westEast" depart="1330" />
    <vehicle id="391" type="typeITSCV" route="westEast" depart="1333" />
    <vehicle id="392" type="typeITSCV" route="eastWest" depart="1335" />
    <vehicle id="393" type="typeITSCV" route="eastSouth" depart="1338" />
    <vehicle id="394" type="typeITSCV" route="westEast" depart="1345" />
    <vehicle id="395" type="typeITSCV" route="eastSouth" depart="1346" />
    <vehicle id="396" type="typeITSCV" route="westSouth" depart="1346" />
    <vehicle id="397" type="typeITSCV" route="westEast" depart="1347" />
    <vehicle id="398" type="typeITSCV" route="southWest" depart="1347" />
    <vehicle id="399" type="typeITSCV" route="eastWest" depart="1350" />
    <vehicle id="400" type="typeITSCV" route="westEast" depart="1354" />
    <vehicle id="401" type="typeITSCV" route="eastWest" depart="1362" />
    <vehicle id="402" type="typeITSCV" route="eastWest" depart="1363" />
    <vehicle id="403" type="typeITSCV" route="westEast" depart="1365" />
    <vehicle id="404" type="typeITSCV" route="eastWest" depart="1372" />