<?xml version="1.0" encoding="UTF-8"?>

<!-- generated on Wed Apr 27 16:15:54 2016 by SUMO duarouter Version 0.25.0
<?xml version="1.0" encoding="UTF-8"?>

<configuration xmlns:xsi="http://www.w3.org/2001/XMLSchema-instance" xsi:noNamespaceSchemaLocation="http://sumo.dlr.de/xsd/duarouterConfiguration.xsd">

    <input>
        <net-file value="simpleT.net.xml"/>
        <trip-files value="trips.trips.xml"/>
    </input>

    <output>
        <output-file value="routes.rou.xml"/>
    </output>

    <processing>
        <ignore-errors value="true"/>
    </processing>

    <time>
        <begin value="0"/>
        <end value="3600"/>
    </time>

    <report>
        <no-warnings value="true"/>
        <no-step-log value="true"/>
    </report>

</configuration>
-->

<routes xmlns:xsi="http://www.w3.org/2001/XMLSchema-instance" xsi:noNamespaceSchemaLocation="http://sumo.dlr.de/xsd/routes_file.xsd">
    <vehicle id="1" depart="1.00">
        <route edges="1:3"/>
    </vehicle>
    <vehicle id="2" depart="2.00">
        <route edges="2:0 0:1 1:5"/>
    </vehicle>
    <vehicle id="3" depart="3.00">
        <route edges="2:0 0:1"/>
    </vehicle>
    <vehicle id="5" depart="5.00">
        <route edges="0:1"/>
    </vehicle>
    <vehicle id="6" depart="6.00">
        <route edges="5:1"/>
    </vehicle>
    <vehicle id="7" depart="7.00">
        <route edges="1:0 0:2"/>
    </vehicle>
    <vehicle id="11" depart="11.00">
        <route edges="0:1 1:3"/>
    </vehicle>
    <vehicle id="12" depart="12.00">
        <route edges="2:0 0:1 1:5 5:6"/>
    </vehicle>
    <vehicle id="13" depart="13.00">
        <route edges="2:0 0:1 1:3"/>
    </vehicle>
    <vehicle id="17" depart="17.00">
        <route edges="0:1 1:5 5:6"/>
    </vehicle>
    <vehicle id="19" depart="19.00">
        <route edges="1:0"/>
    </vehicle>
    <vehicle id="24" depart="24.00">
        <route edges="5:1 1:3"/>
    </vehicle>
    <vehicle id="26" depart="26.00">
        <route edges="7:3 3:1"/>
    </vehicle>
    <vehicle id="28" depart="28.00">
        <route edges="2:0 0:1 1:5"/>
    </vehicle>
    <vehicle id="30" depart="30.00">
        <route edges="7:3 3:1"/>
    </vehicle>
    <vehicle id="32" depart="32.00">
        <route edges="2:0 0:1 1:5"/>
    </vehicle>
    <vehicle id="33" depart="33.00">
        <route edges="0:1 1:5"/>
    </vehicle>
    <vehicle id="34" depart="34.00">
        <route edges="1:3 3:7"/>
    </vehicle>
    <vehicle id="35" depart="35.00">
        <route edges="6:5 5:1"/>
    </vehicle>
    <vehicle id="37" depart="37.00">
        <route edges="3:1 1:0"/>
    </vehicle>
    <vehicle id="40" depart="40.00">
        <route edges="7:3 3:1 1:5 5:6"/>
    </vehicle>
    <vehicle id="41" depart="41.00">
        <route edges="1:5 5:6"/>
    </vehicle>
    <vehicle id="43" depart="43.00">
        <route edges="3:1 1:0 0:2"/>
    </vehicle>
    <vehicle id="45" depart="45.00">
        <route edges="1:3"/>
    </vehicle>
    <vehicle id="46" depart="46.00">
        <route edges="5:1 1:0"/>
    </vehicle>
    <vehicle id="47" depart="47.00">
        <route edges="2:0 0:1 1:3 3:7"/>
    </vehicle>
    <vehicle id="49" depart="49.00">
        <route edges="1:0 0:2"/>
    </vehicle>
    <vehicle id="51" depart="51.00">
        <route edges="5:1"/>
    </vehicle>
    <vehicle id="54" depart="54.00">
        <route edges="6:5 5:1 1:3 3:7"/>
    </vehicle>
    <vehicle id="57" depart="57.00">
        <route edges="5:1 1:3"/>
    </vehicle>
    <vehicle id="60" depart="60.00">
        <route edges="2:0 0:1 1:5 5:6"/>
    </vehicle>
    <vehicle id="61" depart="61.00">
        <route edges="5:1 1:3 3:7"/>
    </vehicle>
    <vehicle id="62" depart="62.00">
        <route edges="3:1 1:0"/>
    </vehicle>
    <vehicle id="64" depart="64.00">
        <route edges="3:1 1:0"/>
    </vehicle>
    <vehicle id="65" depart="65.00">
        <route edges="2:0 0:1 1:3 3:7"/>
    </vehicle>
    <vehicle id="66" depart="66.00">
        <route edges="2:0 0:1 1:3 3:7"/>
    </vehicle>
    <vehicle id="70" depart="70.00">
        <route edges="0:1 1:5"/>
    </vehicle>
    <vehicle id="71" depart="71.00">
        <route edges="1:3 3:7"/>
    </vehicle>
    <vehicle id="72" depart="72.00">
        <route edges="3:1 1:5"/>
    </vehicle>
    <vehicle id="73" depart="73.00">
        <route edges="3:1 1:0 0:2"/>
    </vehicle>
    <vehicle id="75" depart="75.00">
        <route edges="1:0 0:2"/>
    </vehicle>
    <vehicle id="84" depart="84.00">
        <route edges="5:1 1:3 3:7"/>
    </vehicle>
    <vehicle id="85" depart="85.00">
        <route edges="1:3"/>
    </vehicle>
    <vehicle id="86" depart="86.00">
        <route edges="5:1 1:3 3:7"/>
    </vehicle>
    <vehicle id="90" depart="90.00">
        <route edges="7:3 3:1 1:0"/>
    </vehicle>
    <vehicle id="91" depart="91.00">
        <route edges="7:3 3:1 1:0"/>
    </vehicle>
    <vehicle id="94" depart="94.00">
        <route edges="5:1 1:0 0:2"/>
    </vehicle>
    <vehicle id="95" depart="95.00">
        <route edges="2:0 0:1 1:3 3:7"/>
    </vehicle>
    <vehicle id="97" depart="97.00">
        <route edges="1:3"/>
    </vehicle>
    <vehicle id="100" depart="100.00">
        <route edges="3:1 1:5 5:6"/>
    </vehicle>
    <vehicle id="108" depart="108.00">
        <route edges="3:1 1:5"/>
    </vehicle>
    <vehicle id="109" depart="109.00">
        <route edges="0:1 1:5"/>
    </vehicle>
    <vehicle id="111" depart="111.00">
        <route edges="5:1 1:3 3:7"/>
    </vehicle>
    <vehicle id="112" depart="112.00">
        <route edges="2:0 0:1 1:3"/>
    </vehicle>
    <vehicle id="114" depart="114.00">
        <route edges="7:3 3:1 1:0 0:2"/>
    </vehicle>
    <vehicle id="115" depart="115.00">
        <route edges="7:3 3:1 1:5 5:6"/>
    </vehicle>
    <vehicle id="117" depart="117.00">
        <route edges="2:0 0:1 1:3 3:7"/>
    </vehicle>
    <vehicle id="118" depart="118.00">
        <route edges="7:3 3:1 1:5"/>
    </vehicle>
    <vehicle id="120" depart="120.00">
        <route edges="0:1 1:3"/>
    </vehicle>
    <vehicle id="122" depart="122.00">
        <route edges="7:3 3:1"/>
    </vehicle>
    <vehicle id="124" depart="124.00">
        <route edges="1:5"/>
    </vehicle>
    <vehicle id="126" depart="126.00">
        <route edges="1:3 3:7"/>
    </vehicle>
    <vehicle id="127" depart="127.00">
        <route edges="3:1 1:5 5:6"/>
    </vehicle>
    <vehicle id="129" depart="129.00">
        <route edges="3:1 1:0 0:2"/>
    </vehicle>
    <vehicle id="131" depart="131.00">
        <route edges="0:1 1:3 3:7"/>
    </vehicle>
    <vehicle id="132" depart="132.00">
        <route edges="6:5 5:1 1:3"/>
    </vehicle>
    <vehicle id="135" depart="135.00">
        <route edges="5:1 1:0"/>
    </vehicle>
    <vehicle id="137" depart="137.00">
        <route edges="2:0 0:1 1:5"/>
    </vehicle>
    <vehicle id="138" depart="138.00">
        <route edges="7:3 3:1"/>
    </vehicle>
    <vehicle id="140" depart="140.00">
        <route edges="0:1"/>
    </vehicle>
    <vehicle id="143" depart="143.00">
        <route edges="2:0 0:1 1:3"/>
    </vehicle>
    <vehicle id="144" depart="144.00">
        <route edges="7:3 3:1 1:5"/>
    </vehicle>
    <vehicle id="150" depart="150.00">
        <route edges="3:1 1:0 0:2"/>
    </vehicle>
    <vehicle id="153" depart="153.00">
        <route edges="6:5 5:1 1:0 0:2"/>
    </vehicle>
    <vehicle id="154" depart="154.00">
        <route edges="2:0 0:1 1:3 3:7"/>
    </vehicle>
    <vehicle id="155" depart="155.00">
        <route edges="1:3"/>
    </vehicle>
    <vehicle id="158" depart="158.00">
        <route edges="7:3 3:1 1:0"/>
    </vehicle>
    <vehicle id="162" depart="162.00">
        <route edges="6:5 5:1 1:3 3:7"/>
    </vehicle>
    <vehicle id="171" depart="171.00">
        <route edges="5:1 1:0"/>
    </vehicle>
    <vehicle id="175" depart="175.00">
        <route edges="3:1 1:5 5:6"/>
    </vehicle>
    <vehicle id="182" depart="182.00">
        <route edges="0:1 1:3 3:7"/>
    </vehicle>
    <vehicle id="185" depart="185.00">
        <route edges="0:1"/>
    </vehicle>
    <vehicle id="186" depart="186.00">
        <route edges="7:3 3:1 1:5"/>
    </vehicle>
    <vehicle id="187" depart="187.00">
        <route edges="7:3 3:1 1:5"/>
    </vehicle>
    <vehicle id="188" depart="188.00">
        <route edges="1:3 3:7"/>
    </vehicle>
    <vehicle id="189" depart="189.00">
        <route edges="2:0 0:1 1:3 3:7"/>
    </vehicle>
    <vehicle id="192" depart="192.00">
        <route edges="2:0 0:1 1:3"/>
    </vehicle>
    <vehicle id="193" depart="193.00">
        <route edges="2:0 0:1"/>
    </vehicle>
    <vehicle id="196" depart="196.00">
        <route edges="3:1 1:0"/>
    </vehicle>
    <vehicle id="198" depart="198.00">
        <route edges="7:3 3:1 1:0"/>
    </vehicle>
    <vehicle id="200" depart="200.00">
        <route edges="1:3"/>
    </vehicle>
    <vehicle id="201" depart="201.00">
        <route edges="7:3 3:1"/>
    </vehicle>
    <vehicle id="202" depart="202.00">
        <route edges="6:5 5:1 1:0 0:2"/>
    </vehicle>
    <vehicle id="208" depart="208.00">
        <route edges="0:1 1:3"/>
    </vehicle>
    <vehicle id="209" depart="209.00">
        <route edges="6:5 5:1"/>
    </vehicle>
    <vehicle id="210" depart="210.00">
        <route edges="3:1 1:0"/>
    </vehicle>
    <vehicle id="212" depart="212.00">
        <route edges="6:5 5:1 1:0 0:2"/>
    </vehicle>
    <vehicle id="219" depart="219.00">
        <route edges="0:1"/>
    </vehicle>
    <vehicle id="221" depart="221.00">
        <route edges="6:5 5:1 1:3"/>
    </vehicle>
    <vehicle id="227" depart="227.00">
        <route edges="6:5 5:1 1:3 3:7"/>
    </vehicle>
    <vehicle id="228" depart="228.00">
        <route edges="2:0 0:1 1:3"/>
    </vehicle>
    <vehicle id="232" depart="232.00">
        <route edges="2:0 0:1 1:5 5:6"/>
    </vehicle>
    <vehicle id="233" depart="233.00">
        <route edges="1:5 5:6"/>
    </vehicle>
    <vehicle id="234" depart="234.00">
        <route edges="7:3 3:1"/>
    </vehicle>
    <vehicle id="240" depart="240.00">
        <route edges="2:0 0:1 1:5 5:6"/>
    </vehicle>
    <vehicle id="243" depart="243.00">
        <route edges="3:1 1:0"/>
    </vehicle>
    <vehicle id="244" depart="244.00">
        <route edges="6:5 5:1 1:0 0:2"/>
    </vehicle>
    <vehicle id="245" depart="245.00">
        <route edges="0:1 1:3"/>
    </vehicle>
    <vehicle id="249" depart="249.00">
        <route edges="5:1 1:3 3:7"/>
    </vehicle>
    <vehicle id="255" depart="255.00">
        <route edges="1:5"/>
    </vehicle>
    <vehicle id="258" depart="258.00">
        <route edges="2:0 0:1 1:3"/>
    </vehicle>
    <vehicle id="259" depart="259.00">
        <route edges="0:1 1:3 3:7"/>
    </vehicle>
    <vehicle id="264" depart="264.00">
        <route edges="0:1 1:5"/>
    </vehicle>
    <vehicle id="268" depart="268.00">
        <route edges="7:3 3:1 1:5 5:6"/>
    </vehicle>
    <vehicle id="271" depart="271.00">
        <route edges="5:1 1:0"/>
    </vehicle>
    <vehicle id="274" depart="274.00">
        <route edges="1:5 5:6"/>
    </vehicle>
    <vehicle id="276" depart="276.00">
        <route edges="2:0 0:1 1:3 3:7"/>
    </vehicle>
    <vehicle id="277" depart="277.00">
        <route edges="3:1"/>
    </vehicle>
    <vehicle id="278" depart="278.00">
        <route edges="1:3 3:7"/>
    </vehicle>
    <vehicle id="279" depart="279.00">
        <route edges="6:5 5:1 1:3 3:7"/>
    </vehicle>
    <vehicle id="288" depart="288.00">
        <route edges="0:1"/>
    </vehicle>
    <vehicle id="289" depart="289.00">
        <route edges="5:1 1:3"/>
    </vehicle>
    <vehicle id="290" depart="290.00">
        <route edges="5:1 1:3 3:7"/>
    </vehicle>
    <vehicle id="294" depart="294.00">
        <route edges="5:1 1:3"/>
    </vehicle>
    <vehicle id="295" depart="295.00">
        <route edges="1:3"/>
    </vehicle>
    <vehicle id="297" depart="297.00">
        <route edges="1:3"/>
    </vehicle>
    <vehicle id="298" depart="298.00">
        <route edges="2:0 0:1 1:3 3:7"/>
    </vehicle>
    <vehicle id="300" depart="300.00">
        <route edges="1:0"/>
    </vehicle>
    <vehicle id="303" depart="303.00">
        <route edges="0:1"/>
    </vehicle>
    <vehicle id="304" depart="304.00">
        <route edges="6:5 5:1 1:0"/>
    </vehicle>
    <vehicle id="306" depart="306.00">
        <route edges="0:1 1:5 5:6"/>
    </vehicle>
    <vehicle id="314" depart="314.00">
        <route edges="5:1 1:0"/>
    </vehicle>
    <vehicle id="315" depart="315.00">
        <route edges="1:0 0:2"/>
    </vehicle>
    <vehicle id="316" depart="316.00">
        <route edges="7:3 3:1 1:5 5:6"/>
    </vehicle>
    <vehicle id="318" depart="318.00">
        <route edges="2:0 0:1 1:5"/>
    </vehicle>
    <vehicle id="321" depart="321.00">
        <route edges="5:1"/>
    </vehicle>
    <vehicle id="322" depart="322.00">
        <route edges="0:1 1:3 3:7"/>
    </vehicle>
    <vehicle id="326" depart="326.00">
        <route edges="3:1 1:5"/>
    </vehicle>
    <vehicle id="328" depart="328.00">
        <route edges="6:5 5:1"/>
    </vehicle>
    <vehicle id="331" depart="331.00">
        <route edges="2:0 0:1 1:3"/>
    </vehicle>
    <vehicle id="332" depart="332.00">
        <route edges="2:0 0:1 1:3 3:7"/>
    </vehicle>
    <vehicle id="333" depart="333.00">
        <route edges="2:0 0:1 1:3 3:7"/>
    </vehicle>
    <vehicle id="336" depart="336.00">
        <route edges="2:0 0:1 1:3 3:7"/>
    </vehicle>
    <vehicle id="338" depart="338.00">
        <route edges="2:0 0:1 1:3"/>
    </vehicle>
    <vehicle id="339" depart="339.00">
        <route edges="7:3 3:1 1:5 5:6"/>
    </vehicle>
    <vehicle id="345" depart="345.00">
        <route edges="2:0 0:1 1:3"/>
    </vehicle>
    <vehicle id="346" depart="346.00">
        <route edges="7:3 3:1 1:0 0:2"/>
    </vehicle>
    <vehicle id="349" depart="349.00">
        <route edges="6:5 5:1 1:3 3:7"/>
    </vehicle>
    <vehicle id="350" depart="350.00">
        <route edges="7:3 3:1 1:5 5:6"/>
    </vehicle>
    <vehicle id="351" depart="351.00">
        <route edges="3:1 1:5"/>
    </vehicle>
    <vehicle id="352" depart="352.00">
        <route edges="1:3 3:7"/>
    </vehicle>
    <vehicle id="353" depart="353.00">
        <route edges="6:5 5:1 1:0"/>
    </vehicle>
    <vehicle id="357" depart="357.00">
        <route edges="0:1"/>
    </vehicle>
    <vehicle id="358" depart="358.00">
        <route edges="7:3 3:1 1:0 0:2"/>
    </vehicle>
    <vehicle id="359" depart="359.00">
        <route edges="6:5 5:1"/>
    </vehicle>
    <vehicle id="365" depart="365.00">
        <route edges="3:1 1:0"/>
    </vehicle>
    <vehicle id="366" depart="366.00">
        <route edges="0:1 1:5 5:6"/>
    </vehicle>
    <vehicle id="367" depart="367.00">
        <route edges="1:3 3:7"/>
    </vehicle>
    <vehicle id="370" depart="370.00">
        <route edges="6:5 5:1 1:0 0:2"/>
    </vehicle>
    <vehicle id="372" depart="372.00">
        <route edges="1:3 3:7"/>
    </vehicle>
    <vehicle id="373" depart="373.00">
        <route edges="0:1 1:3 3:7"/>
    </vehicle>
    <vehicle id="374" depart="374.00">
        <route edges="0:1 1:3 3:7"/>
    </vehicle>
    <vehicle id="376" depart="376.00">
        <route edges="1:3 3:7"/>
    </vehicle>
    <vehicle id="377" depart="377.00">
        <route edges="6:5 5:1 1:3 3:7"/>
    </vehicle>
    <vehicle id="379" depart="379.00">
        <route edges="0:1 1:5"/>
    </vehicle>
    <vehicle id="380" depart="380.00">
        <route edges="1:3 3:7"/>
    </vehicle>
    <vehicle id="382" depart="382.00">
        <route edges="1:3"/>
    </vehicle>
    <vehicle id="383" depart="383.00">
        <route edges="6:5 5:1 1:3"/>
    </vehicle>
    <vehicle id="384" depart="384.00">
        <route edges="7:3 3:1 1:0 0:2"/>
    </vehicle>
    <vehicle id="385" depart="385.00">
        <route edges="0:1 1:5 5:6"/>
    </vehicle>
    <vehicle id="386" depart="386.00">
        <route edges="1:5 5:6"/>
    </vehicle>
    <vehicle id="391" depart="391.00">
        <route edges="2:0 0:1 1:3"/>
    </vehicle>
    <vehicle id="393" depart="393.00">
        <route edges="1:0"/>
    </vehicle>
    <vehicle id="394" depart="394.00">
        <route edges="7:3 3:1 1:0"/>
    </vehicle>
    <vehicle id="398" depart="398.00">
        <route edges="0:1"/>
    </vehicle>
    <vehicle id="399" depart="399.00">
        <route edges="5:1 1:0"/>
    </vehicle>
    <vehicle id="403" depart="403.00">
        <route edges="0:1 1:5 5:6"/>
    </vehicle>
    <vehicle id="406" depart="406.00">
        <route edges="6:5 5:1 1:0"/>
    </vehicle>
    <vehicle id="411" depart="411.00">
        <route edges="3:1 1:0 0:2"/>
    </vehicle>
    <vehicle id="412" depart="412.00">
        <route edges="6:5 5:1"/>
    </vehicle>
    <vehicle id="413" depart="413.00">
        <route edges="7:3 3:1 1:0 0:2"/>
    </vehicle>
    <vehicle id="415" depart="415.00">
        <route edges="6:5 5:1 1:3 3:7"/>
    </vehicle>
    <vehicle id="416" depart="416.00">
        <route edges="0:1 1:3"/>
    </vehicle>
    <vehicle id="417" depart="417.00">
        <route edges="7:3 3:1 1:5 5:6"/>
    </vehicle>
    <vehicle id="422" depart="422.00">
        <route edges="7:3 3:1"/>
    </vehicle>
    <vehicle id="424" depart="424.00">
        <route edges="6:5 5:1 1:0"/>
    </vehicle>
    <vehicle id="426" depart="426.00">
        <route edges="1:0"/>
    </vehicle>
    <vehicle id="429" depart="429.00">
        <route edges="0:1 1:3 3:7"/>
    </vehicle>
    <vehicle id="430" depart="430.00">
        <route edges="6:5 5:1 1:3 3:7"/>
    </vehicle>
    <vehicle id="431" depart="431.00">
        <route edges="0:1 1:5 5:6"/>
    </vehicle>
    <vehicle id="433" depart="433.00">
        <route edges="7:3 3:1"/>
    </vehicle>
    <vehicle id="439" depart="439.00">
        <route edges="5:1 1:3 3:7"/>
    </vehicle>
    <vehicle id="443" depart="443.00">
        <route edges="7:3 3:1 1:5 5:6"/>
    </vehicle>
    <vehicle id="444" depart="444.00">
        <route edges="2:0 0:1 1:3"/>
    </vehicle>
    <vehicle id="446" depart="446.00">
        <route edges="3:1"/>
    </vehicle>
    <vehicle id="447" depart="447.00">
        <route edges="0:1 1:5 5:6"/>
    </vehicle>
    <vehicle id="449" depart="449.00">
        <route edges="0:1 1:3 3:7"/>
    </vehicle>
    <vehicle id="452" depart="452.00">
        <route edges="7:3 3:1 1:5 5:6"/>
    </vehicle>
    <vehicle id="454" depart="454.00">
        <route edges="6:5 5:1 1:0"/>
    </vehicle>
    <vehicle id="455" depart="455.00">
        <route edges="6:5 5:1 1:0"/>
    </vehicle>
    <vehicle id="458" depart="458.00">
        <route edges="7:3 3:1 1:5 5:6"/>
    </vehicle>
    <vehicle id="459" depart="459.00">
        <route edges="2:0 0:1 1:5 5:6"/>
    </vehicle>
    <vehicle id="460" depart="460.00">
        <route edges="3:1 1:0 0:2"/>
    </vehicle>
    <vehicle id="461" depart="461.00">
        <route edges="2:0 0:1"/>
    </vehicle>
    <vehicle id="465" depart="465.00">
        <route edges="1:5"/>
    </vehicle>
    <vehicle id="466" depart="466.00">
        <route edges="6:5 5:1"/>
    </vehicle>
    <vehicle id="469" depart="469.00">
        <route edges="7:3 3:1 1:5"/>
    </vehicle>
    <vehicle id="472" depart="472.00">
        <route edges="1:0 0:2"/>
    </vehicle>
    <vehicle id="478" depart="478.00">
        <route edges="0:1 1:5"/>
    </vehicle>
    <vehicle id="479" depart="479.00">
        <route edges="3:1"/>
    </vehicle>
    <vehicle id="482" depart="482.00">
        <route edges="7:3 3:1 1:5"/>
    </vehicle>
    <vehicle id="485" depart="485.00">
        <route edges="7:3 3:1 1:0"/>
    </vehicle>
    <vehicle id="486" depart="486.00">
        <route edges="0:1 1:3 3:7"/>
    </vehicle>
    <vehicle id="488" depart="488.00">
        <route edges="2:0 0:1 1:3"/>
    </vehicle>
    <vehicle id="490" depart="490.00">
        <route edges="5:1"/>
    </vehicle>
    <vehicle id="494" depart="494.00">
        <route edges="3:1 1:5"/>
    </vehicle>
    <vehicle id="495" depart="495.00">
        <route edges="7:3 3:1 1:0 0:2"/>
    </vehicle>
    <vehicle id="496" depart="496.00">
        <route edges="3:1 1:0"/>
    </vehicle>
    <vehicle id="497" depart="497.00">
        <route edges="1:0"/>
    </vehicle>
    <vehicle id="500" depart="500.00">
        <route edges="6:5 5:1 1:3"/>
    </vehicle>
    <vehicle id="507" depart="507.00">
        <route edges="5:1 1:3"/>
    </vehicle>
    <vehicle id="508" depart="508.00">
        <route edges="5:1 1:3"/>
    </vehicle>
    <vehicle id="509" depart="509.00">
        <route edges="1:0 0:2"/>
    </vehicle>
    <vehicle id="517" depart="517.00">
        <route edges="1:0 0:2"/>
    </vehicle>
    <vehicle id="519" depart="519.00">
        <route edges="7:3 3:1 1:5"/>
    </vehicle>
    <vehicle id="520" depart="520.00">
        <route edges="0:1 1:5"/>
    </vehicle>
    <vehicle id="521" depart="521.00">
        <route edges="6:5 5:1"/>
    </vehicle>
    <vehicle id="524" depart="524.00">
        <route edges="5:1 1:0 0:2"/>
    </vehicle>
    <vehicle id="529" depart="529.00">
        <route edges="0:1 1:3"/>
    </vehicle>
    <vehicle id="531" depart="531.00">
        <route edges="2:0 0:1 1:5 5:6"/>
    </vehicle>
    <vehicle id="536" depart="536.00">
        <route edges="5:1 1:3"/>
    </vehicle>
    <vehicle id="537" depart="537.00">
        <route edges="5:1 1:0 0:2"/>
    </vehicle>
    <vehicle id="538" depart="538.00">
        <route edges="6:5 5:1"/>
    </vehicle>
    <vehicle id="540" depart="540.00">
        <route edges="7:3 3:1 1:5"/>
    </vehicle>
    <vehicle id="542" depart="542.00">
        <route edges="0:1 1:3 3:7"/>
    </vehicle>
    <vehicle id="544" depart="544.00">
        <route edges="2:0 0:1 1:5 5:6"/>
    </vehicle>
    <vehicle id="546" depart="546.00">
        <route edges="1:0 0:2"/>
    </vehicle>
    <vehicle id="548" depart="548.00">
        <route edges="6:5 5:1 1:3 3:7"/>
    </vehicle>
    <vehicle id="553" depart="553.00">
        <route edges="6:5 5:1 1:3 3:7"/>
    </vehicle>
    <vehicle id="559" depart="559.00">
        <route edges="2:0 0:1 1:5 5:6"/>
    </vehicle>
    <vehicle id="564" depart="564.00">
        <route edges="1:3"/>
    </vehicle>
    <vehicle id="565" depart="565.00">
        <route edges="7:3 3:1 1:5 5:6"/>
    </vehicle>
    <vehicle id="566" depart="566.00">
        <route edges="3:1 1:5"/>
    </vehicle>
    <vehicle id="567" depart="567.00">
        <route edges="6:5 5:1 1:0"/>
    </vehicle>
    <vehicle id="568" depart="568.00">
        <route edges="5:1 1:3"/>
    </vehicle>
    <vehicle id="569" depart="569.00">
        <route edges="0:1 1:3 3:7"/>
    </vehicle>
    <vehicle id="570" depart="570.00">
        <route edges="3:1 1:5"/>
    </vehicle>
    <vehicle id="572" depart="572.00">
        <route edges="0:1 1:5"/>
    </vehicle>
    <vehicle id="577" depart="577.00">
        <route edges="0:1 1:5"/>
    </vehicle>
    <vehicle id="585" depart="585.00">
        <route edges="6:5 5:1 1:3 3:7"/>
    </vehicle>
    <vehicle id="587" depart="587.00">
        <route edges="7:3 3:1"/>
    </vehicle>
    <vehicle id="589" depart="589.00">
        <route edges="5:1 1:0 0:2"/>
    </vehicle>
    <vehicle id="590" depart="590.00">
        <route edges="7:3 3:1 1:5"/>
    </vehicle>
    <vehicle id="599" depart="599.00">
        <route edges="5:1"/>
    </vehicle>
    <vehicle id="601" depart="601.00">
        <route edges="0:1 1:5"/>
    </vehicle>
    <vehicle id="602" depart="602.00">
        <route edges="6:5 5:1"/>
    </vehicle>
    <vehicle id="603" depart="603.00">
        <route edges="1:5 5:6"/>
    </vehicle>
    <vehicle id="605" depart="605.00">
        <route edges="0:1 1:5 5:6"/>
    </vehicle>
    <vehicle id="606" depart="606.00">
        <route edges="6:5 5:1"/>
    </vehicle>
    <vehicle id="607" depart="607.00">
        <route edges="2:0 0:1 1:5 5:6"/>
    </vehicle>
    <vehicle id="608" depart="608.00">
        <route edges="5:1 1:0"/>
    </vehicle>
    <vehicle id="611" depart="611.00">
        <route edges="7:3 3:1 1:0 0:2"/>
    </vehicle>
    <vehicle id="613" depart="613.00">
        <route edges="5:1 1:0"/>
    </vehicle>
    <vehicle id="615" depart="615.00">
        <route edges="2:0 0:1 1:3 3:7"/>
    </vehicle>
    <vehicle id="616" depart="616.00">
        <route edges="7:3 3:1 1:0 0:2"/>
    </vehicle>
    <vehicle id="617" depart="617.00">
        <route edges="7:3 3:1 1:5"/>
    </vehicle>
    <vehicle id="620" depart="620.00">
        <route edges="3:1 1:5 5:6"/>
    </vehicle>
    <vehicle id="621" depart="621.00">
        <route edges="0:1 1:3"/>
    </vehicle>
    <vehicle id="622" depart="622.00">
        <route edges="1:3"/>
    </vehicle>
    <vehicle id="627" depart="627.00">
        <route edges="1:0"/>
    </vehicle>
    <vehicle id="629" depart="629.00">
        <route edges="7:3 3:1"/>
    </vehicle>
    <vehicle id="631" depart="631.00">
        <route edges="1:5 5:6"/>
    </vehicle>
    <vehicle id="634" depart="634.00">
        <route edges="0:1"/>
    </vehicle>
    <vehicle id="635" depart="635.00">
        <route edges="5:1 1:3 3:7"/>
    </vehicle>
    <vehicle id="637" depart="637.00">
        <route edges="7:3 3:1"/>
    </vehicle>
    <vehicle id="639" depart="639.00">
        <route edges="1:5 5:6"/>
    </vehicle>
    <vehicle id="640" depart="640.00">
        <route edges="7:3 3:1 1:5"/>
    </vehicle>
    <vehicle id="641" depart="641.00">
        <route edges="6:5 5:1 1:3 3:7"/>
    </vehicle>
    <vehicle id="643" depart="643.00">
        <route edges="5:1 1:3"/>
    </vehicle>
    <vehicle id="648" depart="648.00">
        <route edges="2:0 0:1 1:3"/>
    </vehicle>
    <vehicle id="650" depart="650.00">
        <route edges="3:1 1:5"/>
    </vehicle>
    <vehicle id="651" depart="651.00">
        <route edges="0:1 1:5"/>
    </vehicle>
    <vehicle id="652" depart="652.00">
        <route edges="7:3 3:1"/>
    </vehicle>
    <vehicle id="656" depart="656.00">
        <route edges="1:3 3:7"/>
    </vehicle>
    <vehicle id="658" depart="658.00">
        <route edges="7:3 3:1 1:5"/>
    </vehicle>
    <vehicle id="660" depart="660.00">
        <route edges="6:5 5:1"/>
    </vehicle>
    <vehicle id="664" depart="664.00">
        <route edges="6:5 5:1 1:0 0:2"/>
    </vehicle>
    <vehicle id="667" depart="667.00">
        <route edges="3:1 1:5 5:6"/>
    </vehicle>
    <vehicle id="672" depart="672.00">
        <route edges="2:0 0:1"/>
    </vehicle>
    <vehicle id="677" depart="677.00">
        <route edges="5:1 1:0 0:2"/>
    </vehicle>
    <vehicle id="679" depart="679.00">
        <route edges="7:3 3:1 1:0"/>
    </vehicle>
    <vehicle id="681" depart="681.00">
        <route edges="3:1 1:0 0:2"/>
    </vehicle>
    <vehicle id="682" depart="682.00">
        <route edges="6:5 5:1"/>
    </vehicle>
    <vehicle id="685" depart="685.00">
        <route edges="5:1"/>
    </vehicle>
    <vehicle id="687" depart="687.00">
        <route edges="3:1"/>
    </vehicle>
    <vehicle id="688" depart="688.00">
        <route edges="1:5 5:6"/>
    </vehicle>
    <vehicle id="689" depart="689.00">
        <route edges="1:0"/>
    </vehicle>
    <vehicle id="692" depart="692.00">
        <route edges="0:1 1:5"/>
    </vehicle>
    <vehicle id="697" depart="697.00">
        <route edges="1:0"/>
    </vehicle>
    <vehicle id="698" depart="698.00">
        <route edges="7:3 3:1 1:5 5:6"/>
    </vehicle>
    <vehicle id="703" depart="703.00">
        <route edges="2:0 0:1 1:3 3:7"/>
    </vehicle>
    <vehicle id="718" depart="718.00">
        <route edges="0:1 1:3"/>
    </vehicle>
    <vehicle id="720" depart="720.00">
        <route edges="7:3 3:1 1:5 5:6"/>
    </vehicle>
    <vehicle id="721" depart="721.00">
        <route edges="2:0 0:1"/>
    </vehicle>
    <vehicle id="722" depart="722.00">
        <route edges="6:5 5:1 1:0 0:2"/>
    </vehicle>
    <vehicle id="724" depart="724.00">
        <route edges="3:1 1:5"/>
    </vehicle>
    <vehicle id="726" depart="726.00">
        <route edges="1:3"/>
    </vehicle>
    <vehicle id="727" depart="727.00">
        <route edges="3:1 1:5 5:6"/>
    </vehicle>
    <vehicle id="733" depart="733.00">
        <route edges="2:0 0:1 1:5 5:6"/>
    </vehicle>
    <vehicle id="734" depart="734.00">
        <route edges="3:1 1:0 0:2"/>
    </vehicle>
    <vehicle id="735" depart="735.00">
        <route edges="1:3 3:7"/>
    </vehicle>
    <vehicle id="736" depart="736.00">
        <route edges="7:3 3:1 1:0"/>
    </vehicle>
    <vehicle id="737" depart="737.00">
        <route edges="1:5 5:6"/>
    </vehicle>
    <vehicle id="739" depart="739.00">
        <route edges="7:3 3:1 1:5 5:6"/>
    </vehicle>
    <vehicle id="740" depart="740.00">
        <route edges="3:1 1:0"/>
    </vehicle>
    <vehicle id="743" depart="743.00">
        <route edges="6:5 5:1 1:3 3:7"/>
    </vehicle>
    <vehicle id="747" depart="747.00">
        <route edges="7:3 3:1 1:5"/>
    </vehicle>
    <vehicle id="748" depart="748.00">
        <route edges="6:5 5:1 1:3 3:7"/>
    </vehicle>
    <vehicle id="749" depart="749.00">
        <route edges="2:0 0:1 1:5 5:6"/>
    </vehicle>
    <vehicle id="750" depart="750.00">
        <route edges="5:1"/>
    </vehicle>
    <vehicle id="751" depart="751.00">
        <route edges="2:0 0:1 1:5"/>
    </vehicle>
    <vehicle id="753" depart="753.00">
        <route edges="1:0 0:2"/>
    </vehicle>
    <vehicle id="755" depart="755.00">
        <route edges="0:1 1:5"/>
    </vehicle>
    <vehicle id="756" depart="756.00">
        <route edges="7:3 3:1 1:5 5:6"/>
    </vehicle>
    <vehicle id="757" depart="757.00">
        <route edges="2:0 0:1 1:5 5:6"/>
    </vehicle>
    <vehicle id="759" depart="759.00">
        <route edges="3:1 1:0"/>
    </vehicle>
    <vehicle id="761" depart="761.00">