<routes>
    <vType id="typeHuman" accel="0.8" decel="4.5" sigma="0.5" length="5" minGap="2.5" maxSpeed="25" guiShape="passenger" color="1,1,0">
    </vType>

    <vType id="typeITSCV" accel="0.8" decel="4.5" sigma="0.5" length="5" minGap="2.5" maxSpeed="25" guiShape="passenger" color="1,0,0">
        <carFollowing-Krauss tau="1.0"/>
    </vType>

    <route id="eastSouth" edges="2:0 0:1 1:5 5:6" />
    <route id="eastWest" edges="2:0 0:1 1:3 3:7" />
    <route id="westSouth" edges="7:3 3:1 1:5 5:6" />
    <route id="westEast" edges="7:3 3:1 1:0 0:2" />
    <route id="southEast" edges="6:5 5:1 1:0 0:2" />
    <route id="southWest" edges="6:5 5:1 1:3 3:7" />
    
    <vehicle id="0" type="typeITSCV" route="westEast" depart="6" />
    <vehicle id="1" type="typeITSCV" route="eastWest" depart="8" />
    <vehicle id="2" type="typeITSCV" route="westEast" depart="14" />
    <vehicle id="3" type="typeITSCV" route="westEast" depart="16" />
    <vehicle id="4" type="typeITSCV" route="eastSouth" depart="21" />
    <vehicle id="5" type="typeITSCV" route="eastWest" depart="23" />
    <vehicle id="6" type="typeITSCV" route="westEast" depart="23" />
    <vehicle id="7" type="typeITSCV" route="eastWest" depart="26" />
    <vehicle id="8" type="typeITSCV" route="westSouth" depart="26" />
    <vehicle id="9" type="typeITSCV" route="eastWest" depart="29" />
    <vehicle id="10" type="typeITSCV" route="southWest" depart="36" />
    <vehicle id="11" type="typeITSCV" route="westEast" depart="41" />
    <vehicle id="12" type="typeITSCV" route="westEast" depart="50" />
    <vehicle id="13" type="typeITSCV" route="eastSouth" depart="60" />
    <vehicle id="14" type="typeITSCV" route="eastWest" depart="60" />
    <vehicle id="15" type="typeITSCV" route="eastWest" depart="61" />
    <vehicle id="16" type="typeITSCV" route="westEast" depart="61" />
    <vehicle id="17" type="typeITSCV" route="southEast" depart="61" />
    <vehicle id="18" type="typeITSCV" route="eastWest" depart="65" />
    <vehicle id="19" type="typeITSCV" route="eastWest" depart="68" />
    <vehicle id="20" type="typeITSCV" route="westEast" depart="68" />
    <vehicle id="21" type="typeITSCV" route="southEast" depart="73" />
    <vehicle id="22" type="typeITSCV" route="westEast" depart="83" />
    <vehicle id="23" type="typeITSCV" route="eastWest" depart="91" />
    <vehicle id="24" type="typeITSCV" route="westEast" depart="94" />
    <vehicle id="25" type="typeITSCV" route="westEast" depart="95" />
    <vehicle id="26" type="typeITSCV" route="westEast" depart="97" />
    <vehicle id="27" type="typeITSCV" route="eastWest" depart="98" />
    <vehicle id="28" type="typeITSCV" route="westEast" depart="99" />
    <vehicle id="29" type="typeITSCV" route="eastWest" depart="100" />
    <vehicle id="30" type="typeITSCV" route="southEast" depart="100" />
    <vehicle id="31" type="typeITSCV" route="westEast" depart="108" />
    <vehicle id="32" type="typeITSCV" route="eastWest" depart="112" />
    <vehicle id="33" type="typeITSCV" route="westEast" depart="119" />
    <vehicle id="34" type="typeITSCV" route="eastWest" depart="123" />
    <vehicle id="35" type="typeITSCV" route="eastWest" depart="133" />
    <vehicle id="36" type="typeITSCV" route="eastSouth" depart="134" />
    <vehicle id="37" type="typeITSCV" route="southWest" depart="141" />
    <vehicle id="38" type="typeITSCV" route="eastSouth" depart="143" />
    <vehicle id="39" type="typeITSCV" route="westSouth" depart="153" />
    <vehicle id="40" type="typeITSCV" route="southWest" depart="160" />
    <vehicle id="41" type="typeITSCV" route="eastWest" depart="168" />
    <vehicle id="42" type="typeITSCV" route="westEast" depart="168" />
    <vehicle id="43" type="typeITSCV" route="southEast" depart="171" />
    <vehicle id="44" type="typeITSCV" route="westEast" depart="176" />
    <vehicle id="45" type="typeITSCV" route="eastWest" depart="177" />
    <vehicle id="46" type="typeITSCV" route="westSouth" depart="180" />
    <vehicle id="47" type="typeITSCV" route="eastSouth" depart="181" />
    <vehicle id="48" type="typeITSCV" route="eastWest" depart="186" />
    <vehicle id="49" type="typeITSCV" route="southEast" depart="187" />
    <vehicle id="50" type="typeITSCV" route="eastSouth" depart="189" />
    <vehicle id="51" type="typeITSCV" route="southWest" depart="196" />
    <vehicle id="52" type="typeITSCV" route="eastWest" depart="201" />
    <vehicle id="53" type="typeITSCV" route="southWest" depart="201" />
    <vehicle id="54" type="typeITSCV" route="eastWest" depart="204" />
    <vehicle id="55" type="typeITSCV" route="westEast" depart="207" />
    <vehicle id="56" type="typeITSCV" route="eastWest" depart="213" />
    <vehicle id="57" type="typeITSCV" route="eastWest" depart="230" />
    <vehicle id="58" type="typeITSCV" route="eastWest" depart="233" />
    <vehicle id="59" type="typeITSCV" route="westEast" depart="233" />
    <vehicle id="60" type="typeITSCV" route="westEast" depart="238" />
    <vehicle id="61" type="typeITSCV" route="eastWest" depart="243" />
    <vehicle id="62" type="typeITSCV" route="southEast" depart="248" />
    <vehicle id="63" type="typeITSCV" route="southWest" depart="250" />
    <vehicle id="64" type="typeITSCV" route="eastWest" depart="251" />
    <vehicle id="65" type="typeITSCV" route="westSouth" depart="251" />
    <vehicle id="66" type="typeITSCV" route="eastWest" depart="259" />
    <vehicle id="67" type="typeITSCV" route="eastWest" depart="262" />
    <vehicle id="68" type="typeITSCV" route="westEast" depart="266" />
    <vehicle id="69" type="typeITSCV" route="westEast" depart="275" />
    <vehicle id="70" type="typeITSCV" route="eastWest" depart="276" />
    <vehicle id="71" type="typeITSCV" route="eastWest" depart="278" />
    <vehicle id="72" type="typeITSCV" route="eastWest" depart="287" />
    <vehicle id="73" type="typeITSCV" route="westEast" depart="288" />
    <vehicle id="74" type="typeITSCV" route="westEast" depart="289" />
    <vehicle id="75" type="typeITSCV" route="eastWest" depart="298" />
    <vehicle id="76" type="typeITSCV" route="westEast" depart="298" />
    <vehicle id="77" type="typeITSCV" route="westEast" depart="307" />
    <vehicle id="78" type="typeITSCV" route="eastWest" depart="309" />
    <vehicle id="79" type="typeITSCV" route="westEast" depart="310" />
    <vehicle id="80" type="typeITSCV" route="westEast" depart="311" />
    <vehicle id="81" type="typeITSCV" route="westEast" depart="312" />
    <vehicle id="82" type="typeITSCV" route="westEast" depart="321" />
    <vehicle id="83" type="typeITSCV" route="westEast" depart="325" />
    <vehicle id="84" type="typeITSCV" route="eastWest" depart="326" />
    <vehicle id="85" type="typeITSCV" route="westEast" depart="326" />
    <vehicle id="86" type="typeITSCV" route="westEast" depart="330" />
    <vehicle id="87" type="typeITSCV" route="eastSouth" depart="332" />
    <vehicle id="88" type="typeITSCV" route="westEast" depart="332" />
    <vehicle id="89" type="typeITSCV" route="eastSouth" depart="334" />
    <vehicle id="90" type="typeITSCV" route="westEast" depart="342" />
    <vehicle id="91" type="typeITSCV" route="southEast" depart="349" />
    <vehicle id="92" type="typeITSCV" route="westEast" depart="350" />
    <vehicle id="93" type="typeITSCV" route="southEast" depart="353" />
    <vehicle id="94" type="typeITSCV" route="eastWest" depart="354" />
    <vehicle id="95" type="typeITSCV" route="eastSouth" depart="356" />
    <vehicle id="96" type="typeITSCV" route="eastWest" depart="357" />
    <vehicle id="97" type="typeITSCV" route="westEast" depart="359" />
    <vehicle id="98" type="typeITSCV" route="southEast" depart="363" />
    <vehicle id="99" type="typeITSCV" route="westSouth" depart="365" />
    <vehicle id="100" type="typeITSCV" route="westEast" depart="365" />
    <vehicle id="101" type="typeITSCV" route="westSouth" depart="366" />
    <vehicle id="102" type="typeITSCV" route="eastSouth" depart="369" />
    <vehicle id="103" type="typeITSCV" route="westEast" depart="369" />
    <vehicle id="104" type="typeITSCV" route="eastWest" depart="383" />
    <vehicle id="105" type="typeITSCV" route="southEast" depart="386" />
    <vehicle id="106" type="typeITSCV" route="westEast" depart="389" />
    <vehicle id="107" type="typeITSCV" route="eastWest" depart="391" />
    <vehicle id="108" type="typeITSCV" route="eastWest" depart="394" />
    <vehicle id="109" type="typeITSCV" route="eastWest" depart="395" />
    <vehicle id="110" type="typeITSCV" route="westSouth" depart="396" />
    <vehicle id="111" type="typeITSCV" route="southWest" depart="396" />
    <vehicle id="112" type="typeITSCV" route="westSouth" depart="400" />
    <vehicle id="113" type="typeITSCV" route="westEast" depart="401" />
    <vehicle id="114" type="typeITSCV" route="westEast" depart="402" />
    <vehicle id="115" type="typeITSCV" route="eastWest" depart="407" />
    <vehicle id="116" type="typeITSCV" route="eastWest" depart="410" />
    <vehicle id="117" type="typeITSCV" route="eastSouth" depart="415" />
    <vehicle id="118" type="typeITSCV" route="eastWest" depart="415" />
    <vehicle id="119" type="typeITSCV" route="southWest" depart="417" />
    <vehicle id="120" type="typeITSCV" route="southWest" depart="421" />
    <vehicle id="121" type="typeITSCV" route="westEast" depart="426" />
    <vehicle id="122" type="typeITSCV" route="southWest" depart="430" />
    <vehicle id="123" type="typeITSCV" route="eastSouth" depart="431" />
    <vehicle id="124" type="typeITSCV" route="westSouth" depart="433" />
    <vehicle id="125" type="typeITSCV" route="eastWest" depart="435" />
    <vehicle id="126" type="typeITSCV" route="westEast" depart="436" />
    <vehicle id="127" type="typeITSCV" route="eastWest" depart="437" />
    <vehicle id="128" type="typeITSCV" route="westEast" depart="439" />
    <vehicle id="129" type="typeITSCV" route="eastSouth" depart="443" />
    <vehicle id="130" type="typeITSCV" route="eastSouth" depart="446" />
    <vehicle id="131" type="typeITSCV" route="westEast" depart="450" />
    <vehicle id="132" type="typeITSCV" route="southWest" depart="452" />
    <vehicle id="133" type="typeITSCV" route="westSouth" depart="454" />
    <vehicle id="134" type="typeITSCV" route="eastWest" depart="455" />
    <vehicle id="135" type="typeITSCV" route="eastWest" depart="457" />
    <vehicle id="136" type="typeITSCV" route="westEast" depart="458" />
    <vehicle id="137" type="typeITSCV" route="westSouth" depart="459" />
    <vehicle id="138" type="typeITSCV" route="eastSouth" depart="461" />
    <vehicle id="139" type="typeITSCV" route="eastWest" depart="465" />
    <vehicle id="140" type="typeITSCV" route="southEast" depart="465" />
    <vehicle id="141" type="typeITSCV" route="southWest" depart="469" />
    <vehicle id="142" type="typeITSCV" route="southEast" depart="472" />
    <vehicle id="143" type="typeITSCV" route="westSouth" depart="474" />
    <vehicle id="144" type="typeITSCV" route="westEast" depart="483" />
    <vehicle id="145" type="typeITSCV" route="southEast" depart="483" />
    <vehicle id="146" type="typeITSCV" route="westSouth" depart="498" />
    <vehicle id="147" type="typeITSCV" route="westEast" depart="499" />
    <vehicle id="148" type="typeITSCV" route="eastWest" depart="500" />
    <vehicle id="149" type="typeITSCV" route="westSouth" depart="504" />
    <vehicle id="150" type="typeITSCV" route="eastWest" depart="508" />
    <vehicle id="151" type="typeITSCV" route="westEast" depart="514" />
    <vehicle id="152" type="typeITSCV" route="westSouth" depart="518" />
    <vehicle id="153" type="typeITSCV" route="westEast" depart="519" />
    <vehicle id="154" type="typeITSCV" route="eastSouth" depart="521" />
    <vehicle id="155" type="typeITSCV" route="westEast" depart="529" />
    <vehicle id="156" type="typeITSCV" route="eastWest" depart="532" />
    <vehicle id="157" type="typeITSCV" route="westEast" depart="534" />
    <vehicle id="158" type="typeITSCV" route="westEast" depart="535" />
    <vehicle id="159" type="typeITSCV" route="westEast" depart="536" />
    <vehicle id="160" type="typeITSCV" route="southEast" depart="536" />
    <vehicle id="161" type="typeITSCV" route="eastWest" depart="543" />
    <vehicle id="162" type="typeITSCV" route="westEast" depart="544" />
    <vehicle id="163" type="typeITSCV" route="westEast" depart="548" />
    <vehicle id="164" type="typeITSCV" route="eastWest" depart="549" />
    <vehicle id="165" type="typeITSCV" route="southWest" depart="553" />
    <vehicle id="166" type="typeITSCV" route="eastWest" depart="555" />
    <vehicle id="167" type="typeITSCV" route="southEast" depart="555" />
    <vehicle id="168" type="typeITSCV" route="eastWest" depart="556" />
    <vehicle id="169" type="typeITSCV" route="eastWest" depart="558" />
    <vehicle id="170" type="typeITSCV" route="eastWest" depart="560" />
    <vehicle id="171" type="typeITSCV" route="southEast" depart="564" />
    <vehicle id="172" type="typeITSCV" route="eastWest" depart="570" />
    <vehicle id="173" type="typeITSCV" route="westEast" depart="574" />
    <vehicle id="174" type="typeITSCV" route="eastWest" depart="577" />
    <vehicle id="175" type="typeITSCV" route="eastWest" depart="579" />
    <vehicle id="176" type="typeITSCV" route="eastWest" depart="588" />
    <vehicle id="177" type="typeITSCV" route="eastWest" depart="589" />
    <vehicle id="178" type="typeITSCV" route="eastWest" depart="592" />
    <vehicle id="179" type="typeITSCV" route="eastWest" depart="593" />
    <vehicle id="180" type="typeITSCV" route="eastWest" depart="596" />
    <vehicle id="181" type="typeITSCV" route="westEast" depart="603" />
    <vehicle id="182" type="typeITSCV" route="westEast" depart="604" />
    <vehicle id="183" type="typeITSCV" route="westSouth" depart="605" />
    <vehicle id="184" type="typeITSCV" route="westEast" depart="607" />
    <vehicle id="185" type="typeITSCV" route="southWest" depart="608" />
    <vehicle id="186" type="typeITSCV" route="southEast" depart="612" />
    <vehicle id="187" type="typeITSCV" route="eastSouth" depart="615" />
    <vehicle id="188" type="typeITSCV" route="southWest" depart="616" />
    <vehicle id="189" type="typeITSCV" route="southWest" depart="619" />
    <vehicle id="190" type="typeITSCV" route="westEast" depart="623" />
    <vehicle id="191" type="typeITSCV" route="westSouth" depart="631" />
    <vehicle id="192" type="typeITSCV" route="westSouth" depart="638" />
    <vehicle id="193" type="typeITSCV" route="eastWest" depart="640" />
    <vehicle id="194" type="typeITSCV" route="eastWest" depart="646" />
    <vehicle id="195" type="typeITSCV" route="southEast" depart="646" />
    <vehicle id="196" type="typeITSCV" route="eastWest" depart="650" />
    <vehicle id="197" type="typeITSCV" route="southEast" depart="650" />
    <vehicle id="198" type="typeITSCV" route="westEast" depart="655" />
    <vehicle id="199" type="typeITSCV" route="westEast" depart="656" />
    <vehicle id="200" type="typeITSCV" route="eastSouth" depart="657" />
    <vehicle id="201" type="typeITSCV" route="southWest" depart="657" />
    <vehicle id="202" type="typeITSCV" route="westEast" depart="662" />
    <vehicle id="203" type="typeITSCV" route="southEast" depart="662" />
    <vehicle id="204" type="typeITSCV" route="eastSouth" depart="663" />
    <vehicle id="205" type="typeITSCV" route="eastSouth" depart="664" />
    <vehicle id="206" type="typeITSCV" route="westSouth" depart="665" />
    <vehicle id="207" type="typeITSCV" route="westEast" depart="665" />
    <vehicle id="208" type="typeITSCV" route="westEast" depart="668" />
    <vehicle id="209" type="typeITSCV" route="westEast" depart="669" />
    <vehicle id="210" type="typeITSCV" route="westEast" depart="670" />
    <vehicle id="211" type="typeITSCV" route="westEast" depart="671" />
    <vehicle id="212" type="typeITSCV" route="westEast" depart="674" />
    <vehicle id="213" type="typeITSCV" route="westEast" depart="678" />
    <vehicle id="214" type="typeITSCV" route="westEast" depart="682" />
    <vehicle id="215" type="typeITSCV" route="eastWest" depart="684" />
    <vehicle id="216" type="typeITSCV" route="eastWest" depart="688" />
    <vehicle id="217" type="typeITSCV" route="eastSouth" depart="690" />
    <vehicle id="218" type="typeITSCV" route="westEast" depart="698" />
    <vehicle id="219" type="typeITSCV" route="eastSouth" depart="699" />
    <vehicle id="220" type="typeITSCV" route="westSouth" depart="699" />
    <vehicle id="221" type="typeITSCV" route="westEast" depart="703" />
    <vehicle id="222" type="typeITSCV" route="westEast" depart="705" />
    <vehicle id="223" type="typeITSCV" route="southWest" depart="711" />
    <vehicle id="224" type="typeITSCV" route="eastWest" depart="712" />
    <vehicle id="225" type="typeITSCV" route="eastWest" depart="714" />
    <vehicle id="226" type="typeITSCV" route="westEast" depart="715" />
    <vehicle id="227" type="typeITSCV" route="eastSouth" depart="719" />
    <vehicle id="228" type="typeITSCV" route="eastWest" depart="719" />
    <vehicle id="229" type="typeITSCV" route="westEast" depart="723" />
    <vehicle id="230" type="typeITSCV" route="westSouth" depart="729" />
    <vehicle id="231" type="typeITSCV" route="westSouth" depart="730" />
    <vehicle id="232" type="typeITSCV" route="westSouth" depart="736" />
    <vehicle id="233" type="typeITSCV" route="eastWest" depart="750" />
    <vehicle id="234" type="typeITSCV" route="eastWest" depart="752" />
    <vehicle id="235" type="typeITSCV" route="eastWest" depart="757" />
    <vehicle id="236" type="typeITSCV" route="southEast" depart="762" />
    <vehicle id="237" type="typeITSCV" route="eastSouth" depart="766" />
    <vehicle id="238" type="typeITSCV" route="westSouth" depart="771" />
    <vehicle id="239" type="typeITSCV" route="westEast" depart="778" />
    <vehicle id="240" type="typeITSCV" route="eastWest" depart="779" />
    <vehicle id="241" type="typeITSCV" route="southWest" depart="780" />
    <vehicle id="242" type="typeITSCV" route="eastSouth" depart="783" />
    <vehicle id="243" type="typeITSCV" route="eastSouth" depart="792" />
    <vehicle id="244" type="typeITSCV" route="southWest" depart="792" />
    <vehicle id="245" type="typeITSCV" route="eastWest" depart="793" />
    <vehicle id="246" type="typeITSCV" route="eastWest" depart="797" />
    <vehicle id="247" type="typeITSCV" route="westEast" depart="798" />
    <vehicle id="248" type="typeITSCV" route="eastWest" depart="809" />
    <vehicle id="249" type="typeITSCV" route="eastWest" depart="810" />
    <vehicle id="250" type="typeITSCV" route="westEast" depart="812" />
    <vehicle id="251" type="typeITSCV" route="eastWest" depart="814" />
    <vehicle id="252" type="typeITSCV" route="westEast" depart="814" />
    <vehicle id="253" type="typeITSCV" route="eastSouth" depart="817" />
    <vehicle id="254" type="typeITSCV" route="westEast" depart="818" />
    <vehicle id="255" type="typeITSCV" route="westSouth" depart="822" />
    <vehicle id="256" type="typeITSCV" route="eastWest" depart="824" />
    <vehicle id="257" type="typeITSCV" route="eastWest" depart="828" />
    <vehicle id="258" type="typeITSCV" route="westSouth" depart="830" />
    <vehicle id="259" type="typeITSCV" route="eastWest" depart="836" />
    <vehicle id="260" type="typeITSCV" route="westSouth" depart="837" />
    <vehicle id="261" type="typeITSCV" route="southWest" depart="841" />
    <vehicle id="262" type="typeITSCV" route="eastSouth" depart="842" />
    <vehicle id="263" type="typeITSCV" route="eastWest" depart="848" />
    <vehicle id="264" type="typeITSCV" route="westEast" depart="855" />
    <vehicle id="265" type="typeITSCV" route="westEast" depart="859" />
    <vehicle id="266" type="typeITSCV" route="eastSouth" depart="870" />
    <vehicle id="267" type="typeITSCV" route="southEast" depart="872" />
    <vehicle id="268" type="typeITSCV" route="westEast" depart="874" />
    <vehicle id="269" type="typeITSCV" route="southEast" depart="874" />
    <vehicle id="270" type="typeITSCV" route="westSouth" depart="876" />
    <vehicle id="271" type="typeITSCV" route="eastWest" depart="877" />
    <vehicle id="272" type="typeITSCV" route="southEast" depart="882" />
    <vehicle id="273" type="typeITSCV" route="westEast" depart="894" />
    <vehicle id="274" type="typeITSCV" route="eastWest" depart="897" />
    <vehicle id="275" type="typeITSCV" route="eastWest" depart="908" />
    <vehicle id="276" type="typeITSCV" route="westSouth" depart="912" />
    <vehicle id="277" type="typeITSCV" route="westEast" depart="913" />
    <vehicle id="278" type="typeITSCV" route="westEast" depart="921" />
    <vehicle id="279" type="typeITSCV" route="eastWest" depart="923" />
    <vehicle id="280" type="typeITSCV" route="westEast" depart="926" />
    <vehicle id="281" type="typeITSCV" route="eastSouth" depart="928" />
    <vehicle id="282" type="typeITSCV" route="southEast" depart="937" />
    <vehicle id="283" type="typeITSCV" route="eastWest" depart="940" />
    <vehicle id="284" type="typeITSCV" route="westEast" depart="940" />
    <vehicle id="285" type="typeITSCV" route="eastWest" depart="943" />
    <vehicle id="286" type="typeITSCV" route="southWest" depart="944" />
    <vehicle id="287" type="typeITSCV" route="westEast" depart="947" />
    <vehicle id="288" type="typeITSCV" route="westEast" depart="948" />
    <vehicle id="289" type="typeITSCV" route="southWest" depart="950" />
    <vehicle id="290" type="typeITSCV" route="westEast" depart="960" />
    <vehicle id="291" type="typeITSCV" route="southEast" depart="960" />
    <vehicle id="292" type="typeITSCV" route="eastSouth" depart="961" />
    <vehicle id="293" type="typeITSCV" route="eastWest" depart="961" />
    <vehicle id="294" type="typeITSCV" route="eastWest" depart="962" />
    <vehicle id="295" type="typeITSCV" route="eastWest" depart="963" />
    <vehicle id="296" type="typeITSCV" route="southWest" depart="975" />
    <vehicle id="297" type="typeITSCV" route="westEast" depart="981" />
    <vehicle id="298" type="typeITSCV" route="southEast" depart="982" />
    <vehicle id="299" type="typeITSCV" route="southEast" depart="983" />
    <vehicle id="300" type="typeITSCV" route="eastWest" depart="985" />
    <vehicle id="301" type="typeITSCV" route="southEast" depart="985" />
    <vehicle id="302" type="typeITSCV" route="eastWest" depart="986" />
    <vehicle id="303" type="typeITSCV" route="westEast" depart="994" />
    <vehicle id="304" type="typeITSCV" route="eastWest" depart="997" />
    <vehicle id="305" type="typeITSCV" route="eastWest" depart="998" />
    <vehicle id="306" type="typeITSCV" route="southWest" depart="999" />
    <vehicle id="307" type="typeITSCV" route="eastWest" depart="1007" />
    <vehicle id="308" type="typeITSCV" route="eastWest" depart="1009" />
    <vehicle id="309" type="typeITSCV" route="eastWest" depart="1012" />
    <vehicle id="310" type="typeITSCV" route="westEast" depart="1012" />
    <vehicle id="311" type="typeITSCV" route="westEast" depart="1016" />
    <vehicle id="312" type="typeITSCV" route="westSouth" depart="1018" />
    <vehicle id="313" type="typeITSCV" route="westSouth" depart="1019" />
    <vehicle id="314" type="typeITSCV" route="westEast" depart="1021" />
    <vehicle id="315" type="typeITSCV" route="eastSouth" depart="1026" />
    <vehicle id="316" type="typeITSCV" route="westEast" depart="1028" />
    <vehicle id="317" type="typeITSCV" route="eastWest" depart="1032" />
    <vehicle id="318" type="typeITSCV" route="eastWest" depart="1033" />
    <vehicle id="319" type="typeITSCV" route="eastSouth" depart="1035" />
    <vehicle id="320" type="typeITSCV" route="eastWest" depart="1038" />
    <vehicle id="321" type="typeITSCV" route="southEast" depart="1042" />
    <vehicle id="322" type="typeITSCV" route="southWest" depart="1046" />
    <vehicle id="323" type="typeITSCV" route="westEast" depart="1047" />
    <vehicle id="324" type="typeITSCV" route="southEast" depart="1047" />
    <vehicle id="325" type="typeITSCV" route="eastWest" depart="1048" />
    <vehicle id="326" type="typeITSCV" route="southWest" depart="1048" />
    <vehicle id="327" type="typeITSCV" route="eastWest" depart="1049" />
    <vehicle id="328" type="typeITSCV" route="eastWest" depart="1056" />
    <vehicle id="329" type="typeITSCV" route="westEast" depart="1062" />
    <vehicle id="330" type="typeITSCV" route="eastSouth" depart="1063" />
    <vehicle id="331" type="typeITSCV" route="eastWest" depart="1065" />
    <vehicle id="332" type="typeITSCV" route="westEast" depart="1066" />
    <vehicle id="333" type="typeITSCV" route="southWest" depart="1069" />
    <vehicle id="334" type="typeITSCV" route="westEast" depart="1070" />
    <vehicle id="335" type="typeITSCV" route="eastWest" depart="1071" />
    <vehicle id="336" type="typeITSCV" route="eastWest" depart="1080" />
    <vehicle id="337" type="typeITSCV" route="westEast" depart="1080" />
    <vehicle id="338" type="typeITSCV" route="westEast" depart="1083" />
    <vehicle id="339" type="typeITSCV" route="westEast" depart="1084" />
    <vehicle id="340" type="typeITSCV" route="southWest" depart="1090" />
    <vehicle id="341" type="typeITSCV" route="westEast" depart="1091" />
    <vehicle id="342" type="typeITSCV" route="westEast" depart="1094" />
    <vehicle id="343" type="typeITSCV" route="westEast" depart="1098" />
    <vehicle id="344" type="typeITSCV" route="westEast" depart="1101" />
    <vehicle id="345" type="typeITSCV" route="eastWest" depart="1108" />
    <vehicle id="346" type="typeITSCV" route="westEast" depart="1109" />
    <vehicle id="347" type="typeITSCV" route="westEast" depart="1111" />
    <vehicle id="348" type="typeITSCV" route="westEast" depart="1113" />
    <vehicle id="349" type="typeITSCV" route="eastWest" depart="1133" />
    <vehicle id="350" type="typeITSCV" route="westSouth" depart="1134" />
    <vehicle id="351" type="typeITSCV" route="eastSouth" depart="1136" />
    <vehicle id="352" type="typeITSCV" route="eastWest" depart="1141" />
    <vehicle id="353" type="typeITSCV" route="eastWest" depart="1144" />
    <vehicle id="354" type="typeITSCV" route="eastWest" depart="1145" />
    <vehicle id="355" type="typeITSCV" route="eastSouth" depart="1167" />
    <vehicle id="356" type="typeITSCV" route="eastWest" depart="1167" />
    <vehicle id="357" type="typeITSCV" route="eastWest" depart="1168" />
    <vehicle id="358" type="typeITSCV" route="westEast" depart="1170" />
    <vehicle id="359" type="typeITSCV" route="eastWest" depart="1172" />
    <vehicle id="360" type="typeITSCV" route="eastWest" depart="1173" />
    <vehicle id="361" type="typeITSCV" route="eastWest" depart="1175" />
    <vehicle id="362" type="typeITSCV" route="westEast" depart="1178" />
    <vehicle id="363" type="typeITSCV" route="southEast" depart="1180" />
    <vehicle id="364" type="typeITSCV" route="eastWest" depart="1182" />
    <vehicle id="365" type="typeITSCV" route="westEast" depart="1184" />
    <vehicle id="366" type="typeITSCV" route="eastWest" depart="1185" />
    <vehicle id="367" type="typeITSCV" route="westEast" depart="1189" />
    <vehicle id="368" type="typeITSCV" route="eastWest" depart="1192" />
    <vehicle id="369" type="typeITSCV" route="southWest" depart="1193" />
    <vehicle id="370" type="typeITSCV" route="eastWest" depart="1206" />
    <vehicle id="371" type="typeITSCV" route="eastWest" depart="1207" />
    <vehicle id="372" type="typeITSCV" route="eastWest" depart="1209" />
    <vehicle id="373" type="typeITSCV" route="eastSouth" depart="1213" />
    <vehicle id="374" type="typeITSCV" route="westEast" depart="1216" />
    <vehicle id="375" type="typeITSCV" route="southEast" depart="1216" />
    <vehicle id="376" type="typeITSCV" route="eastWest" depart="1220" />
    <vehicle id="377" type="typeITSCV" route="eastWest" depart="1221" />
    <vehicle id="378" type="typeITSCV" route="eastWest" depart="1224" />
    <vehicle id="379" type="typeITSCV" route="westEast" depart="1225" />
    <vehicle id="380" type="typeITSCV" route="eastWest" depart="1227" />
    <vehicle id="381" type="typeITSCV" route="westEast" depart="1230" />
    <vehicle id="382" type="typeITSCV" route="eastWest" depart="1234" />
    <vehicle id="383" type="typeITSCV" route="southWest" depart="1237" />
    <vehicle id="384" type="typeITSCV" route="eastWest" depart="1240" />
    <vehicle id="385" type="typeITSCV" route="westSouth" depart="1242" />
    <vehicle id="386" type="typeITSCV" route="westEast" depart="1245" />
    <vehicle id="387" type="typeITSCV" route="westSouth" depart="1247" />
    <vehicle id="388" type="typeITSCV" route="eastWest" depart="1250" />
    <vehicle id="389" type="typeITSCV" route="westSouth" depart="1250" />
    <vehicle id="390" type="typeITSCV" route="eastSouth" depart="1252" />
    <vehicle id="391" type="typeITSCV" route="westSouth" depart="1253" />
    <vehicle id="392" type="typeITSCV" route="westEast" depart="1261" />
    <vehicle id="393" type="typeITSCV" route="westSouth" depart="1274" />
    <vehicle id="394" type="typeITSCV" route="westEast" depart="1283" />
    <vehicle id="395" type="typeITSCV" route="westEast" depart="1287" />
    <vehicle id="396" type="typeITSCV" route="southEast" depart="1289" />
    <vehicle id="397" type="typeITSCV" route="southEast" depart="1294" />
    <vehicle id="398" type="typeITSCV" route="southEast" depart="1300" />
    <vehicle id="399" type="typeITSCV" route="westEast" depart="1306" />
    <vehicle id="400" type="typeITSCV" route="westSouth" depart="1307" />
    <vehicle id="401" type="typeITSCV" route="westEast" depart="1307" />
    <vehicle id="402" type="typeITSCV" route="westEast" depart="1309" />
    <vehicle id="403" type="typeITSCV" route="eastSouth" depart="1317" />
    <vehicle id="404" type="typeITSCV" route="eastWest" depart="1320" />