<additional>
	<inductionLoop id="0" lane="0:1_0" pos="-6" freq="30" file="loops.out"/>
	<inductionLoop id="1" lane="0:1_0" pos="-18" freq="30" file="loops.out"/>
	<inductionLoop id="2" lane="0:1_1" pos="-6" freq="30" file="loops.out"/>
	<inductionLoop id="3" lane="0:1_1" pos="-18" freq="30" file="loops.out"/>
	<inductionLoop id="4" lane="3:1_0" pos="-6" freq="30" file="loops.out"/>
	<inductionLoop id="5" lane="3:1_0" pos="-18" freq="30" file="loops.out"/>
	<inductionLoop id="6" lane="3:1_1" pos="-6" freq="30" file="loops.out"/>
	<inductionLoop id="7" lane="3:1_1" pos="-18" freq="30" file="loops.out"/>
	<inductionLoop id="8" lane="5:1_0" pos="-6" freq="30" file="loops.out"/>
	<inductionLoop id="9" lane="5:1_0" pos="-18" freq="30" file="loops.out"/>
</additional>
